[TITLE]
;;Project Title/Notes
DM does not validate so Dummy Links are Gothic

[OPTIONS]
;;Option             Value
FLOW_UNITS           CFS
INFILTRATION         HORTON
FLOW_ROUTING         DYNWAVE
LINK_OFFSETS         DEPTH
MIN_SLOPE            0
ALLOW_PONDING        NO
SKIP_STEADY_STATE    NO

START_DATE           01/01/2020
START_TIME           00:00:00
REPORT_START_DATE    01/01/2020
REPORT_START_TIME    00:00:00
END_DATE             01/01/2020
END_TIME             03:00:00
SWEEP_START          01/01
SWEEP_END            12/31
DRY_DAYS             0
REPORT_STEP          00:00:30
WET_STEP             00:01:00
DRY_STEP             24:00:00
ROUTING_STEP         0:00:10 
RULE_STEP            00:00:00

INERTIAL_DAMPING     NONE
NORMAL_FLOW_LIMITED  BOTH
FORCE_MAIN_EQUATION  H-W
VARIABLE_STEP        0.75
LENGTHENING_STEP     0
MIN_SURFAREA         12.557
MAX_TRIALS           8
HEAD_TOLERANCE       0.001
SYS_FLOW_TOL         5
LAT_FLOW_TOL         5
MINIMUM_STEP         0
THREADS              1

[EVAPORATION]
;;Data Source    Parameters
;;-------------- ----------------
CONSTANT         0.0
DRY_ONLY         NO

[JUNCTIONS]
;;Name           Elevation  MaxDepth   InitDepth  SurDepth   Aponded   
;;-------------- ---------- ---------- ---------- ---------- ----------
C_N2.0           104        4          0          0          0         
C_N1.0           102        3          0          0          0         
C_N6.0           110.3      3.7        0          0          0         
C_N5.0           108.3      3.7        0          0          0         
C_N4.0           106.3      3.7        0          0          0         
C_N3.0           104.3      5.7        0          0          0         
C_N2.1           104        4          0          0          0         
C_N1.1           102        3          0          0          0         
C_N6.1           110.3      3.7        0          0          0         
C_N5.1           108.3      3.7        0          0          0         
C_N4.1           106.3      3.7        0          0          0         
C_N3.1           104.3      5.7        0          0          0         
C_N2.2           104        4          0          0          0         
C_N1.2           102        3          0          0          0         
C_N6.2           110.3      3.7        0          0          0         
C_N5.2           108.3      3.7        0          0          0         
C_N4.2           106.3      3.7        0          0          0         
C_N3.2           104.3      5.7        0          0          0         
C_N2.3           104        4          0          0          0         
C_N1.3           102        3          0          0          0         
C_N6.3           110.3      3.7        0          0          0         
C_N5.3           108.3      3.7        0          0          0         
C_N4.3           106.3      3.7        0          0          0         
C_N3.3           104.3      5.7        0          0          0         
FC_N2.0          104        4          0          0          0         
FC_N1.0          102        3          0          0          0         
FC_N6.0          110.3      3.7        0          0          0         
FC_N5.0          108.3      3.7        0          0          0         
FC_N4.0          106.3      3.7        0          0          0         
FC_N3.0          104.3      5.7        0          0          0         
FC_N2.1          104        4          0          0          0         
FC_N1.1          102        3          0          0          0         
FC_N6.1          110.3      3.7        0          0          0         
FC_N5.1          108.3      3.7        0          0          0         
FC_N4.1          106.3      3.7        0          0          0         
FC_N3.1          104.3      5.7        0          0          0         
FC_N2.2          104        4          0          0          0         
FC_N1.2          102        3          0          0          0         
FC_N6.2          110.3      3.7        0          0          0         
FC_N5.2          108.3      3.7        0          0          0         
FC_N4.2          106.3      3.7        0          0          0         
FC_N3.2          104.3      5.7        0          0          0         
FC_N2.3          104        4          0          0          0         
FC_N1.3          102        3          0          0          0         
FC_N6.3          110.3      3.7        0          0          0         
FC_N5.3          108.3      3.7        0          0          0         
FC_N4.3          106.3      3.7        0          0          0         
FC_N3.3          104.3      5.7        0          0          0         
DM_N2.0          104        4          0          0          0         
DM_N1.0          102        3          0          0          0         
DM_N6.0          110.3      3.7        0          0          0         
DM_N5.0          108.3      3.7        0          0          0         
DM_N4.0          106.3      3.7        0          0          0         
DM_N3.0          104.3      5.7        0          0          0         
DM_N2.1          104        4          0          0          0         
DM_N1.1          102        3          0          0          0         
DM_N6.1          110.3      3.7        0          0          0         
DM_N5.1          108.3      3.7        0          0          0         
DM_N4.1          106.3      3.7        0          0          0         
DM_N3.1          104.3      5.7        0          0          0         
DM_N2.2          104        4          0          0          0         
DM_N1.2          102        3          0          0          0         
DM_N6.2          110.3      3.7        0          0          0         
DM_N5.2          108.3      3.7        0          0          0         
DM_N4.2          106.3      3.7        0          0          0         
DM_N3.2          104.3      5.7        0          0          0         
DM_N2.3          104        4          0          0          0         
DM_N1.3          102        3          0          0          0         
DM_N6.3          110.3      3.7        0          0          0         
DM_N5.3          108.3      3.7        0          0          0         
DM_N4.3          106.3      3.7        0          0          0         
DM_N3.3          104.3      5.7        0          0          0         
RC__N2.0         104        4          0          0          0         
RC__N1.0         102        3          0          0          0         
RC__N6.0         110.3      3.7        0          0          0         
RC__N5.0         108.3      3.7        0          0          0         
RC__N4.0         106.3      3.7        0          0          0         
RC__N3.0         104.3      5.7        0          0          0         
RC__N2.1         104        4          0          0          0         
RC__N1.1         102        3          0          0          0         
RC__N6.1         110.3      3.7        0          0          0         
RC__N5.1         108.3      3.7        0          0          0         
RC__N4.1         106.3      3.7        0          0          0         
RC__N3.1         104.3      5.7        0          0          0         
RC__N2.2         104        4          0          0          0         
RC__N1.2         102        3          0          0          0         
RC__N6.2         110.3      3.7        0          0          0         
RC__N5.2         108.3      3.7        0          0          0         
RC__N4.2         106.3      3.7        0          0          0         
RC__N3.2         104.3      5.7        0          0          0         
RC__N2.3         104        4          0          0          0         
RC__N1.3         102        3          0          0          0         
RC__N6.3         110.3      3.7        0          0          0         
RC__N5.3         108.3      3.7        0          0          0         
RC__N4.3         106.3      3.7        0          0          0         
RC__N3.3         104.3      5.7        0          0          0         
RO__N2.0         104        4          0          0          0         
RO__N1.0         102        3          0          0          0         
RO__N6.0         110.3      3.7        0          0          0         
RO__N5.0         108.3      3.7        0          0          0         
RO__N4.0         106.3      3.7        0          0          0         
RO__N3.0         104.3      5.7        0          0          0         
RO__N2.1         104        4          0          0          0         
RO__N1.1         102        3          0          0          0         
RO__N6.1         110.3      3.7        0          0          0         
RO__N5.1         108.3      3.7        0          0          0         
RO__N4.1         106.3      3.7        0          0          0         
RO__N3.1         104.3      5.7        0          0          0         
RO__N2.2         104        4          0          0          0         
RO__N1.2         102        3          0          0          0         
RO__N6.2         110.3      3.7        0          0          0         
RO__N5.2         108.3      3.7        0          0          0         
RO__N4.2         106.3      3.7        0          0          0         
RO__N3.2         104.3      5.7        0          0          0         
RO__N2.3         104        4          0          0          0         
RO__N1.3         102        3          0          0          0         
RO__N6.3         110.3      3.7        0          0          0         
RO__N5.3         108.3      3.7        0          0          0         
RO__N4.3         106.3      3.7        0          0          0         
RO__N3.3         104.3      5.7        0          0          0         
TR__N2.0         104        4          0          0          0         
TR__N1.0         102        3          0          0          0         
TR__N6.0         110.3      3.7        0          0          0         
TR__N5.0         108.3      3.7        0          0          0         
TR__N4.0         106.3      3.7        0          0          0         
TR__N3.0         104.3      5.7        0          0          0         
TR__N2.1         104        4          0          0          0         
TR__N1.1         102        3          0          0          0         
TR__N6.1         110.3      3.7        0          0          0         
TR__N5.1         108.3      3.7        0          0          0         
TR__N4.1         106.3      3.7        0          0          0         
TR__N3.1         104.3      5.7        0          0          0         
TR__N2.2         104        4          0          0          0         
TR__N1.2         102        3          0          0          0         
TR__N6.2         110.3      3.7        0          0          0         
TR__N5.2         108.3      3.7        0          0          0         
TR__N4.2         106.3      3.7        0          0          0         
TR__N3.2         104.3      5.7        0          0          0         
TR__N2.3         104        4          0          0          0         
TR__N1.3         102        3          0          0          0         
TR__N6.3         110.3      3.7        0          0          0         
TR__N5.3         108.3      3.7        0          0          0         
TR__N4.3         106.3      3.7        0          0          0         
TR__N3.3         104.3      5.7        0          0          0         
PA__N2.0         104        4          0          0          0         
PA__N1.0         102        3          0          0          0         
PA__N6.0         110.3      3.7        0          0          0         
PA__N5.0         108.3      3.7        0          0          0         
PA__N4.0         106.3      3.7        0          0          0         
PA__N3.0         104.3      5.7        0          0          0         
PA__N2.1         104        4          0          0          0         
PA__N1.1         102        3          0          0          0         
PA__N6.1         110.3      3.7        0          0          0         
PA__N5.1         108.3      3.7        0          0          0         
PA__N4.1         106.3      3.7        0          0          0         
PA__N3.1         104.3      5.7        0          0          0         
PA__N2.2         104        4          0          0          0         
PA__N1.2         102        3          0          0          0         
PA__N6.2         110.3      3.7        0          0          0         
PA__N5.2         108.3      3.7        0          0          0         
PA__N4.2         106.3      3.7        0          0          0         
PA__N3.2         104.3      5.7        0          0          0         
PA__N2.3         104        4          0          0          0         
PA__N1.3         102        3          0          0          0         
PA__N6.3         110.3      3.7        0          0          0         
PA__N5.3         108.3      3.7        0          0          0         
PA__N4.3         106.3      3.7        0          0          0         
PA__N3.3         104.3      5.7        0          0          0         
TRI__N2.0        104        4          0          0          0         
TRI__N1.0        102        3          0          0          0         
TRI__N6.0        110.3      3.7        0          0          0         
TRI__N5.0        108.3      3.7        0          0          0         
TRI__N4.0        106.3      3.7        0          0          0         
TRI__N3.0        104.3      5.7        0          0          0         
TRI__N2.1        104        4          0          0          0         
TRI__N1.1        102        3          0          0          0         
TRI__N6.1        110.3      3.7        0          0          0         
TRI__N5.1        108.3      3.7        0          0          0         
TRI__N4.1        106.3      3.7        0          0          0         
TRI__N3.1        104.3      5.7        0          0          0         
TRI__N2.2        104        4          0          0          0         
TRI__N1.2        102        3          0          0          0         
TRI__N6.2        110.3      3.7        0          0          0         
TRI__N5.2        108.3      3.7        0          0          0         
TRI__N4.2        106.3      3.7        0          0          0         
TRI__N3.2        104.3      5.7        0          0          0         
TRI__N2.3        104        4          0          0          0         
TRI__N1.3        102        3          0          0          0         
TRI__N6.3        110.3      3.7        0          0          0         
TRI__N5.3        108.3      3.7        0          0          0         
TRI__N4.3        106.3      3.7        0          0          0         
TRI__N3.3        104.3      5.7        0          0          0         
PO__N2.0         104        4          0          0          0         
PO__N1.0         102        3          0          0          0         
PO__N6.0         110.3      3.7        0          0          0         
PO__N5.0         108.3      3.7        0          0          0         
PO__N4.0         106.3      3.7        0          0          0         
PO__N3.0         104.3      5.7        0          0          0         
PO__N2.1         104        4          0          0          0         
PO__N1.1         102        3          0          0          0         
PO__N6.1         110.3      3.7        0          0          0         
PO__N5.1         108.3      3.7        0          0          0         
PO__N4.1         106.3      3.7        0          0          0         
PO__N3.1         104.3      5.7        0          0          0         
PO__N2.2         104        4          0          0          0         
PO__N1.2         102        3          0          0          0         
PO__N6.2         110.3      3.7        0          0          0         
PO__N5.2         108.3      3.7        0          0          0         
PO__N4.2         106.3      3.7        0          0          0         
PO__N3.2         104.3      5.7        0          0          0         
PO__N2.3         104        4          0          0          0         
PO__N1.3         102        3          0          0          0         
PO__N6.3         110.3      3.7        0          0          0         
PO__N5.3         108.3      3.7        0          0          0         
PO__N4.3         106.3      3.7        0          0          0         
PO__N3.3         104.3      5.7        0          0          0         
RT__N2.0         104        4          0          0          0         
RT__N1.0         102        3          0          0          0         
RT__N6.0         110.3      3.7        0          0          0         
RT__N5.0         108.3      3.7        0          0          0         
RT__N4.0         106.3      3.7        0          0          0         
RT__N3.0         104.3      5.7        0          0          0         
RT__N2.1         104        4          0          0          0         
RT__N1.1         102        3          0          0          0         
RT__N6.1         110.3      3.7        0          0          0         
RT__N5.1         108.3      3.7        0          0          0         
RT__N4.1         106.3      3.7        0          0          0         
RT__N3.1         104.3      5.7        0          0          0         
RT__N2.2         104        4          0          0          0         
RT__N1.2         102        3          0          0          0         
RT__N6.2         110.3      3.7        0          0          0         
RT__N5.2         108.3      3.7        0          0          0         
RT__N4.2         106.3      3.7        0          0          0         
RT__N3.2         104.3      5.7        0          0          0         
RT__N2.3         104        4          0          0          0         
RT__N1.3         102        3          0          0          0         
RT__N6.3         110.3      3.7        0          0          0         
RT__N5.3         108.3      3.7        0          0          0         
RT__N4.3         106.3      3.7        0          0          0         
RT__N3.3         104.3      5.7        0          0          0         
RR__N2.0         104        4          0          0          0         
RR__N1.0         102        3          0          0          0         
RR__N6.0         110.3      3.7        0          0          0         
RR__N5.0         108.3      3.7        0          0          0         
RR__N4.0         106.3      3.7        0          0          0         
RR__N3.0         104.3      5.7        0          0          0         
RR__N2.1         104        4          0          0          0         
RR__N1.1         102        3          0          0          0         
RR__N6.1         110.3      3.7        0          0          0         
RR__N5.1         108.3      3.7        0          0          0         
RR__N4.1         106.3      3.7        0          0          0         
RR__N3.1         104.3      5.7        0          0          0         
RR__N2.2         104        4          0          0          0         
RR__N1.2         102        3          0          0          0         
RR__N6.2         110.3      3.7        0          0          0         
RR__N5.2         108.3      3.7        0          0          0         
RR__N4.2         106.3      3.7        0          0          0         
RR__N3.2         104.3      5.7        0          0          0         
RR__N2.3         104        4          0          0          0         
RR__N1.3         102        3          0          0          0         
RR__N6.3         110.3      3.7        0          0          0         
RR__N5.3         108.3      3.7        0          0          0         
RR__N4.3         106.3      3.7        0          0          0         
RR__N3.3         104.3      5.7        0          0          0         
MB__N2.0         104        4          0          0          0         
MB__N1.0         102        3          0          0          0         
MB__N6.0         110.3      3.7        0          0          0         
MB__N5.0         108.3      3.7        0          0          0         
MB__N4.0         106.3      3.7        0          0          0         
MB__N3.0         104.3      5.7        0          0          0         
MB__N2.1         104        4          0          0          0         
MB__N1.1         102        3          0          0          0         
MB__N6.1         110.3      3.7        0          0          0         
MB__N5.1         108.3      3.7        0          0          0         
MB__N4.1         106.3      3.7        0          0          0         
MB__N3.1         104.3      5.7        0          0          0         
MB__N2.2         104        4          0          0          0         
MB__N1.2         102        3          0          0          0         
MB__N6.2         110.3      3.7        0          0          0         
MB__N5.2         108.3      3.7        0          0          0         
MB__N4.2         106.3      3.7        0          0          0         
MB__N3.2         104.3      5.7        0          0          0         
MB__N2.3         104        4          0          0          0         
MB__N1.3         102        3          0          0          0         
MB__N6.3         110.3      3.7        0          0          0         
MB__N5.3         108.3      3.7        0          0          0         
MB__N4.3         106.3      3.7        0          0          0         
MB__N3.3         104.3      5.7        0          0          0         
HE__N2.0         104        4          0          0          0         
HE__N1.0         102        3          0          0          0         
HE__N6.0         110.3      3.7        0          0          0         
HE__N5.0         108.3      3.7        0          0          0         
HE__N4.0         106.3      3.7        0          0          0         
HE__N3.0         104.3      5.7        0          0          0         
HE__N2.1         104        4          0          0          0         
HE__N1.1         102        3          0          0          0         
HE__N6.1         110.3      3.7        0          0          0         
HE__N5.1         108.3      3.7        0          0          0         
HE__N4.1         106.3      3.7        0          0          0         
HE__N3.1         104.3      5.7        0          0          0         
HE__N2.2         104        4          0          0          0         
HE__N1.2         102        3          0          0          0         
HE__N6.2         110.3      3.7        0          0          0         
HE__N5.2         108.3      3.7        0          0          0         
HE__N4.2         106.3      3.7        0          0          0         
HE__N3.2         104.3      5.7        0          0          0         
HE__N2.3         104        4          0          0          0         
HE__N1.3         102        3          0          0          0         
HE__N6.3         110.3      3.7        0          0          0         
HE__N5.3         108.3      3.7        0          0          0         
HE__N4.3         106.3      3.7        0          0          0         
HE__N3.3         104.3      5.7        0          0          0         
VE__N2.0         104        4          0          0          0         
VE__N1.0         102        3          0          0          0         
VE__N6.0         110.3      3.7        0          0          0         
VE__N5.0         108.3      3.7        0          0          0         
VE__N4.0         106.3      3.7        0          0          0         
VE__N3.0         104.3      5.7        0          0          0         
VE__N2.1         104        4          0          0          0         
VE__N1.1         102        3          0          0          0         
VE__N6.1         110.3      3.7        0          0          0         
VE__N5.1         108.3      3.7        0          0          0         
VE__N4.1         106.3      3.7        0          0          0         
VE__N3.1         104.3      5.7        0          0          0         
VE__N2.2         104        4          0          0          0         
VE__N1.2         102        3          0          0          0         
VE__N6.2         110.3      3.7        0          0          0         
VE__N5.2         108.3      3.7        0          0          0         
VE__N4.2         106.3      3.7        0          0          0         
VE__N3.2         104.3      5.7        0          0          0         
VE__N2.3         104        4          0          0          0         
VE__N1.3         102        3          0          0          0         
VE__N6.3         110.3      3.7        0          0          0         
VE__N5.3         108.3      3.7        0          0          0         
VE__N4.3         106.3      3.7        0          0          0         
VE__N3.3         104.3      5.7        0          0          0         
AR__N2.0         104        4          0          0          0         
AR__N1.0         102        3          0          0          0         
AR__N6.0         110.3      3.7        0          0          0         
AR__N5.0         108.3      3.7        0          0          0         
AR__N4.0         106.3      3.7        0          0          0         
AR__N3.0         104.3      5.7        0          0          0         
AR__N2.1         104        4          0          0          0         
AR__N1.1         102        3          0          0          0         
AR__N6.1         110.3      3.7        0          0          0         
AR__N5.1         108.3      3.7        0          0          0         
AR__N4.1         106.3      3.7        0          0          0         
AR__N3.1         104.3      5.7        0          0          0         
AR__N2.2         104        4          0          0          0         
AR__N1.2         102        3          0          0          0         
AR__N6.2         110.3      3.7        0          0          0         
AR__N5.2         108.3      3.7        0          0          0         
AR__N4.2         106.3      3.7        0          0          0         
AR__N3.2         104.3      5.7        0          0          0         
AR__N2.3         104        4          0          0          0         
AR__N1.3         102        3          0          0          0         
AR__N6.3         110.3      3.7        0          0          0         
AR__N5.3         108.3      3.7        0          0          0         
AR__N4.3         106.3      3.7        0          0          0         
AR__N3.3         104.3      5.7        0          0          0         
EG__N2.0         104        4          0          0          0         
EG__N1.0         102        3          0          0          0         
EG__N6.0         110.3      3.7        0          0          0         
EG__N5.0         108.3      3.7        0          0          0         
EG__N4.0         106.3      3.7        0          0          0         
EG__N3.0         104.3      5.7        0          0          0         
EG__N2.1         104        4          0          0          0         
EG__N1.1         102        3          0          0          0         
EG__N6.1         110.3      3.7        0          0          0         
EG__N5.1         108.3      3.7        0          0          0         
EG__N4.1         106.3      3.7        0          0          0         
EG__N3.1         104.3      5.7        0          0          0         
EG__N2.2         104        4          0          0          0         
EG__N1.2         102        3          0          0          0         
EG__N6.2         110.3      3.7        0          0          0         
EG__N5.2         108.3      3.7        0          0          0         
EG__N4.2         106.3      3.7        0          0          0         
EG__N3.2         104.3      5.7        0          0          0         
EG__N2.3         104        4          0          0          0         
EG__N1.3         102        3          0          0          0         
EG__N6.3         110.3      3.7        0          0          0         
EG__N5.3         108.3      3.7        0          0          0         
EG__N4.3         106.3      3.7        0          0          0         
EG__N3.3         104.3      5.7        0          0          0         
HS__N2.0         104        4          0          0          0         
HS__N1.0         102        3          0          0          0         
HS__N6.0         110.3      3.7        0          0          0         
HS__N5.0         108.3      3.7        0          0          0         
HS__N4.0         106.3      3.7        0          0          0         
HS__N3.0         104.3      5.7        0          0          0         
HS__N2.1         104        4          0          0          0         
HS__N1.1         102        3          0          0          0         
HS__N6.1         110.3      3.7        0          0          0         
HS__N5.1         108.3      3.7        0          0          0         
HS__N4.1         106.3      3.7        0          0          0         
HS__N3.1         104.3      5.7        0          0          0         
HS__N2.2         104        4          0          0          0         
HS__N1.2         102        3          0          0          0         