[TITLE]


[OPTIONS]
;;Options            Value
;;------------------ ------------
FLOW_UNITS           MGD
INFILTRATION         HORTON
FLOW_ROUTING         DYNWAVE
LINK_OFFSETS         DEPTH
MIN_SLOPE            0
ALLOW_PONDING        NO
SKIP_STEADY_STATE    NO
START_DATE           
START_TIME           
REPORT_START_DATE    
REPORT_START_TIME    
END_DATE             
END_TIME             06:00:00
SWEEP_START          1/1
SWEEP_END            12/31
DRY_DAYS             0
REPORT_STEP          00:01:00
WET_STEP             00:05:00
DRY_STEP             00:05:00
ROUTING_STEP         5
RULE_STEP            00:00:00
INERTIAL_DAMPING     PARTIAL
NORMAL_FLOW_LIMITED  BOTH
FORCE_MAIN_EQUATION  H-W
VARIABLE_STEP        0.75
LENGTHENING_STEP     0
MIN_SURFAREA         0
MAX_TRIALS           8
HEAD_TOLERANCE       0
SYS_FLOW_TOL         5
LAT_FLOW_TOL         5
MINIMUM_STEP         0.5
THREADS              4

[EVAPORATION]
;;Type          Parameters
;;------------- ----------
CONSTANT     0.0
DRY_ONLY     NO

[JUNCTIONS]
;;               Invert     Max.       Init.      Surcharge  Ponded    
;;Name           Elev.      Depth      Depth      Depth      Area      
;;-------------- ---------- ---------- ---------- ---------- ----------
A1_1d            85.967192  23.322808  0.000000   0.000000   0.000000  
A1_1u            85.967192  23.322808  0.000000   0.000000   0.000000  
A1_2d            85.967192  23.322808  0.000000   0.000000   0.000000  
A1_2u            85.967192  23.322808  0.000000   0.000000   0.000000  
A1_3d            85.967192  23.322808  0.000000   0.000000   0.000000  
A1_3u            85.967192  23.322808  0.000000   0.000000   0.000000  
A1_4             86.000000  23.290000  0.000000   0.000000   0.000000  
A1_Ing           86.000000  23.290000  0.000000   0.000000   0.000000  
A10_1d           85.967192  23.252808  0.000000   0.000000   0.000000  
A10_1u           85.967192  23.252808  0.000000   0.000000   0.000000  
A10_2d           85.967192  23.252808  0.000000   0.000000   0.000000  
A10_2u           85.967192  23.252808  0.000000   0.000000   0.000000  
A10_3d           85.967192  23.252808  0.000000   0.000000   0.000000  
A10_3u           85.967192  23.252808  0.000000   0.000000   0.000000  
A10_4            86.000000  23.220000  0.000000   0.000000   0.000000  
A10-12Ind        77.420000  29.560000  0.000000   0.000000   0.000000  
A10-12out        87.670000  21.550000  0.000000   0.000000   0.000000  
A10Ing           86.000000  23.220000  0.000000   0.000000   0.000000  
A10W             97.000000  9.980000   0.000000   0.000000   0.000000  
A1-3In           77.420000  29.530000  0.000000   0.000000   0.000000  
A1-3In!          77.420000  29.560000  0.000000   0.000000   0.000000  
A1-3Ind          77.420000  29.530000  0.000000   0.000000   0.000000  
A1-3out          87.670000  21.620000  0.000000   0.000000   0.000000  
A1-3W            97.000000  9.950000   0.000000   0.000000   0.000000  
A2_1d            85.967192  23.262808  0.000000   0.000000   0.000000  
A2_1u            85.967192  23.262808  0.000000   0.000000   0.000000  
A2_2d            85.967192  23.262808  0.000000   0.000000   0.000000  
A2_2u            85.967192  23.262808  0.000000   0.000000   0.000000  
A2_3d            85.967192  23.262808  0.000000   0.000000   0.000000  
A2_3u            85.967192  23.262808  0.000000   0.000000   0.000000  
A2_4             86.000000  23.230000  0.000000   0.000000   0.000000  
A2-4Ind          77.420000  29.560000  0.000000   0.000000   0.000000  
A2-4out          87.670000  21.560000  0.000000   0.000000   0.000000  
A2-4W            97.000000  9.980000   0.000000   0.000000   0.000000  
A2Ing            86.000000  23.230000  0.000000   0.000000   0.000000  
A3_1d            85.967192  23.382808  0.000000   0.000000   0.000000  
A3_1u            85.967192  23.382808  0.000000   0.000000   0.000000  
A3_2d            85.967192  23.382808  0.000000   0.000000   0.000000  
A3_2u            85.967192  23.382808  0.000000   0.000000   0.000000  
A3_3d            85.967192  23.382808  0.000000   0.000000   0.000000  
A3_3u            85.967192  23.382808  0.000000   0.000000   0.000000  
A3_4             86.000000  23.350000  0.000000   0.000000   0.000000  
A3_Ing           86.000000  23.350000  0.000000   0.000000   0.000000  
A4_1d            85.967192  23.262808  0.000000   0.000000   0.000000  
A4_1u            85.967192  23.262808  0.000000   0.000000   0.000000  
A4_2d            85.967192  23.262808  0.000000   0.000000   0.000000  
A4_2u            85.967192  23.262808  0.000000   0.000000   0.000000  
A4_3d            85.967192  23.262808  0.000000   0.000000   0.000000  
A4_3u            85.967192  23.262808  0.000000   0.000000   0.000000  
A4_4             86.000000  23.230000  0.000000   0.000000   0.000000  
A4Ing            86.000000  23.230000  0.000000   0.000000   0.000000  
A5_1d            85.967192  23.302808  0.000000   0.000000   0.000000  
A5_1u            85.967192  23.302808  0.000000   0.000000   0.000000  
A5_2d            85.967192  23.302808  0.000000   0.000000   0.000000  
A5_2u            85.967192  23.302808  0.000000   0.000000   0.000000  
A5_3d            85.967192  23.302808  0.000000   0.000000   0.000000  
A5_3u            85.967192  23.302808  0.000000   0.000000   0.000000  
A5_4             86.000000  23.270000  0.000000   0.000000   0.000000  
A5-7In           77.420000  29.530000  0.000000   0.000000   0.000000  
A5-7In!          77.420000  29.560000  0.000000   0.000000   0.000000  
A5-7Ind          77.420000  29.530000  0.000000   0.000000   0.000000  
A5-7out          87.670000  21.600000  0.000000   0.000000   0.000000  
A5-7W            97.000000  9.950000   0.000000   0.000000   0.000000  
A5Ing            86.000000  23.270000  0.000000   0.000000   0.000000  
A6_1d            85.967192  23.282808  0.000000   0.000000   0.000000  
A6_1u            85.967192  23.282808  0.000000   0.000000   0.000000  
A6_2d            85.967192  23.282808  0.000000   0.000000   0.000000  
A6_2u            85.967192  23.282808  0.000000   0.000000   0.000000  
A6_3d            85.967192  23.282808  0.000000   0.000000   0.000000  
A6_3u            85.967192  23.282808  0.000000   0.000000   0.000000  
A6_4             86.000000  23.250000  0.000000   0.000000   0.000000  
A6-8Ind          77.420000  29.560000  0.000000   0.000000   0.000000  
A6-8out          87.670000  21.580000  0.000000   0.000000   0.000000  
A6-8W            97.000000  9.980000   0.000000   0.000000   0.000000  
A6Ing            86.000000  23.250000  0.000000   0.000000   0.000000  
A7_1d            85.967192  23.312808  0.000000   0.000000   0.000000  
A7_1u            85.967192  23.312808  0.000000   0.000000   0.000000  
A7_2d            85.967192  23.312808  0.000000   0.000000   0.000000  
A7_2u            85.967192  23.312808  0.000000   0.000000   0.000000  
A7_3d            85.967192  23.312808  0.000000   0.000000   0.000000  
A7_3u            85.967192  23.312808  0.000000   0.000000   0.000000  
A7_4             86.000000  23.280000  0.000000   0.000000   0.000000  
A7Ing            86.000000  23.280000  0.000000   0.000000   0.000000  
A8_1d            85.967192  23.282808  0.000000   0.000000   0.000000  
A8_1u            85.967192  23.282808  0.000000   0.000000   0.000000  
A8_2d            85.967192  23.282808  0.000000   0.000000   0.000000  
A8_2u            85.967192  23.282808  0.000000   0.000000   0.000000  
A8_3d            85.967192  23.282808  0.000000   0.000000   0.000000  
A8_3u            85.967192  23.282808  0.000000   0.000000   0.000000  
A8_4             86.000000  23.250000  0.000000   0.000000   0.000000  
A8Ing            86.000000  23.250000  0.000000   0.000000   0.000000  
A9_1d            85.967192  23.312808  0.000000   0.000000   0.000000  
A9_1u            85.967192  23.312808  0.000000   0.000000   0.000000  
A9_2d            85.967192  23.312808  0.000000   0.000000   0.000000  
A9_2u            85.967192  23.312808  0.000000   0.000000   0.000000  
A9_3d            85.967192  23.312808  0.000000   0.000000   0.000000  
A9_3u            85.967192  23.312808  0.000000   0.000000   0.000000  
A9_4             86.000000  23.280000  0.000000   0.000000   0.000000  
A9-11Ind         77.420000  29.530000  0.000000   0.000000   0.000000  
A9-11out         87.670000  21.610000  0.000000   0.000000   0.000000  
A9In             77.420000  29.530000  0.000000   0.000000   0.000000  
A9In!            77.420000  29.560000  0.000000   0.000000   0.000000  
A9Ing            86.000000  23.280000  0.000000   0.000000   0.000000  
A9W              97.000000  9.950000   0.000000   0.000000   0.000000  
AEout            87.670000  15.080000  0.000000   0.000000   0.000000  
AEout2           87.670000  15.080000  0.000000   0.000000   0.000000  
AWout            87.670000  15.080000  0.000000   0.000000   0.000000  
AWout2           87.670000  15.080000  0.000000   0.000000   0.000000  
BypassG          99.467192  12.032808  0.000000   0.000000   0.000000  
Delcora          99.500000  12.000000  0.000000   0.000000   0.000000  
DPd              99.000000  12.390000  0.000000   0.000000   0.000000  
;Name Elev ( Ymax Y0 Ysur Apond )
DPu              99.000000  12.390000  0.000000   0.000000   0.000000  
EAubypass        96.217192  11.572808  0.000000   0.000000   0.000000  
ESB              94.000000  12.980000  0.000000   0.000000   0.000000  
F17in2           87.670000  15.080000  0.000000   0.000000   0.000000  
FinalDis         80.000000  22.670000  0.000000   0.000000   0.000000  
FlocEAu          96.217192  11.582808  0.000000   0.000000   0.000000  
FlocEN           93.000000  14.800000  0.000000   0.000000   0.000000  
FlocESd          93.000000  14.800000  0.000000   0.000000   0.000000  
FlocESu          93.000000  14.800000  0.000000   0.000000   0.000000  
FlocInE!         93.000000  14.800000  0.000000   0.000000   0.000000  
FlocInW!         93.000000  14.300000  0.000000   0.000000   0.000000  
FlocWAu          96.217192  11.582808  0.000000   0.000000   0.000000  
FlocWN           93.000000  14.300000  0.000000   0.000000   0.000000  
FlocWSd          93.000000  14.300000  0.000000   0.000000   0.000000  
FlocWSu          93.000000  14.300000  0.000000   0.000000   0.000000  
FT10in1          87.670000  15.080000  0.000000   0.000000   0.000000  
FT10in1g         88.500000  13.000000  0.000000   0.000000   0.000000  
FT10in2          87.670000  15.080000  0.000000   0.000000   0.000000  
FT10in2g         88.500000  13.000000  0.000000   0.000000   0.000000  
FT10out1         89.000000  13.670000  0.000000   0.000000   0.000000  
FT10out1w        88.500000  13.000000  0.000000   0.000000   0.000000  
FT10out2         89.000000  13.670000  0.000000   0.000000   0.000000  
FT10out2w        88.500000  13.000000  0.000000   0.000000   0.000000  
FT11in1          87.670000  15.080000  0.000000   0.000000   0.000000  
FT11in1g         88.500000  13.000000  0.000000   0.000000   0.000000  
FT11in2          87.670000  15.080000  0.000000   0.000000   0.000000  
FT11in2g         88.500000  13.000000  0.000000   0.000000   0.000000  
FT11out1         89.000000  13.670000  0.000000   0.000000   0.000000  
FT11out1w        88.500000  13.000000  0.000000   0.000000   0.000000  
FT11out2         89.000000  13.670000  0.000000   0.000000   0.000000  
FT11out2w        88.500000  13.000000  0.000000   0.000000   0.000000  
Ft12in1          87.670000  15.080000  0.000000   0.000000   0.000000  
FT12in1g         88.500000  13.000000  0.000000   0.000000   0.000000  
FT12in2          87.670000  15.080000  0.000000   0.000000   0.000000  
FT12in2g         88.500000  13.000000  0.000000   0.000000   0.000000  
FT12out1         89.000000  13.670000  0.000000   0.000000   0.000000  
FT12out1w        88.500000  13.000000  0.000000   0.000000   0.000000  
FT12out2         89.000000  13.670000  0.000000   0.000000   0.000000  
FT12out2w        88.500000  13.000000  0.000000   0.000000   0.000000  
FT13in1          87.670000  15.080000  0.000000   0.000000   0.000000  
FT13in1g         88.500000  13.000000  0.000000   0.000000   0.000000  
FT13in2          87.670000  15.080000  0.000000   0.000000   0.000000  
FT13in2g         88.500000  13.000000  0.000000   0.000000   0.000000  
FT13out1         89.000000  13.670000  0.000000   0.000000   0.000000  
FT13out1w        88.500000  13.000000  0.000000   0.000000   0.000000  
FT13out2         89.000000  13.670000  0.000000   0.000000   0.000000  
FT13out2w        88.500000  13.000000  0.000000   0.000000   0.000000  
FT14in1          87.670000  15.080000  0.000000   0.000000   0.000000  
FT14in1g         88.500000  13.000000  0.000000   0.000000   0.000000  
FT14in2          87.670000  15.080000  0.000000   0.000000   0.000000  
FT14in2g         88.500000  13.000000  0.000000   0.000000   0.000000  
FT14out1         89.000000  13.670000  0.000000   0.000000   0.000000  
FT14out1w        88.500000  13.000000  0.000000   0.000000   0.000000  
FT14out2         89.000000  13.670000  0.000000   0.000000   0.000000  
FT14out2w        88.500000  13.000000  0.000000   0.000000   0.000000  
FT15in1          87.670000  15.080000  0.000000   0.000000   0.000000  
FT15in1g         88.500000  13.000000  0.000000   0.000000   0.000000  
FT15in2          87.670000  15.080000  0.000000   0.000000   0.000000  
FT15in2g         88.500000  13.000000  0.000000   0.000000   0.000000  
FT15out1         89.000000  13.670000  0.000000   0.000000   0.000000  
FT15out1w        88.500000  13.000000  0.000000   0.000000   0.000000  
FT15out2         89.000000  13.670000  0.000000   0.000000   0.000000  
FT15out2w        88.500000  13.000000  0.000000   0.000000   0.000000  
FT16in1          87.670000  15.080000  0.000000   0.000000   0.000000  
FT16in1g         88.500000  13.000000  0.000000   0.000000   0.000000  
FT16in2          87.670000  15.080000  0.000000   0.000000   0.000000  
FT16in2g         88.500000  13.000000  0.000000   0.000000   0.000000  
FT16out1         89.000000  13.670000  0.000000   0.000000   0.000000  
FT16out1w        88.500000  13.000000  0.000000   0.000000   0.000000  
FT16out2         89.000000  13.670000  0.000000   0.000000   0.000000  
FT16out2w        88.500000  13.000000  0.000000   0.000000   0.000000  
FT17in1          87.670000  15.080000  0.000000   0.000000   0.000000  
FT17in1g         88.500000  13.000000  0.000000   0.000000   0.000000  
FT17in2g         88.500000  13.000000  0.000000   0.000000   0.000000  
FT17out1         89.000000  13.670000  0.000000   0.000000   0.000000  
FT17out1w        88.500000  13.000000  0.000000   0.000000   0.000000  
FT17out2         89.000000  13.670000  0.000000   0.000000   0.000000  
FT17out2w        88.500000  13.000000  0.000000   0.000000   0.000000  
FT18in1          87.670000  15.080000  0.000000   0.000000   0.000000  
FT18in1g         88.500000  13.000000  0.000000   0.000000   0.000000  
FT18in2          87.670000  15.080000  0.000000   0.000000   0.000000  
FT18in2g         88.500000  13.000000  0.000000   0.000000   0.000000  
FT18out1         89.000000  13.670000  0.000000   0.000000   0.000000  
FT18out1w        88.500000  13.000000  0.000000   0.000000   0.000000  
FT18out2         89.000000  13.670000  0.000000   0.000000   0.000000  
FT18out2w        88.500000  13.000000  0.000000   0.000000   0.000000  
FT19in1          87.670000  15.080000  0.000000   0.000000   0.000000  
FT19in1g         88.500000  13.000000  0.000000   0.000000   0.000000  
FT19in2          87.670000  15.080000  0.000000   0.000000   0.000000  
FT19in2g         88.500000  13.000000  0.000000   0.000000   0.000000  
FT19out1         89.000000  13.670000  0.000000   0.000000   0.000000  
FT19out1w        88.500000  13.000000  0.000000   0.000000   0.000000  
FT19out2         89.000000  13.670000  0.000000   0.000000   0.000000  
FT19out2w        88.500000  13.000000  0.000000   0.000000   0.000000  
FT1in1           87.670000  15.080000  0.000000   0.000000   0.000000  
FT1in1g          88.500000  13.000000  0.000000   0.000000   0.000000  
FT1in2           87.670000  15.080000  0.000000   0.000000   0.000000  
FT1in2g          88.500000  13.000000  0.000000   0.000000   0.000000  
FT1out1          89.000000  13.670000  0.000000   0.000000   0.000000  
FT1out1w         88.500000  13.000000  0.000000   0.000000   0.000000  
FT1out2          89.000000  13.670000  0.000000   0.000000   0.000000  
FT1out2w         88.500000  13.000000  0.000000   0.000000   0.000000  
FT20in1          87.670000  15.080000  0.000000   0.000000   0.000000  
FT20in1g         88.500000  13.000000  0.000000   0.000000   0.000000  
FT20in2          87.670000  15.080000  0.000000   0.000000   0.000000  
FT20out1         89.000000  13.670000  0.000000   0.000000   0.000000  
FT20out1w        88.500000  13.000000  0.000000   0.000000   0.000000  
FT20out2         89.000000  13.670000  0.000000   0.000000   0.000000  
FT20out2g        88.500000  13.000000  0.000000   0.000000   0.000000  
FT20out2w        88.500000  13.000000  0.000000   0.000000   0.000000  
FT21In1          87.670000  15.080000  0.000000   0.000000   0.000000  
FT21In2          87.670000  15.080000  0.000000   0.000000   0.000000  
FT22In1          87.670000  15.080000  0.000000   0.000000   0.000000  
FT22In2          87.670000  15.080000  0.000000   0.000000   0.000000  
FT2in1           87.670000  15.080000  0.000000   0.000000   0.000000  
FT2in1g          88.500000  13.000000  0.000000   0.000000   0.000000  
FT2in2           87.670000  15.080000  0.000000   0.000000   0.000000  
FT2in2g          88.500000  13.000000  0.000000   0.000000   0.000000  
FT2out1          89.000000  13.670000  0.000000   0.000000   0.000000  
FT2out1w         88.500000  13.000000  0.000000   0.000000   0.000000  
FT2out2          89.000000  13.670000  0.000000   0.000000   0.000000  
FT2out2w         88.500000  13.000000  0.000000   0.000000   0.000000  
FT3in1           87.670000  15.080000  0.000000   0.000000   0.000000  
FT3in1g          88.500000  13.000000  0.000000   0.000000   0.000000  
FT3in2           87.670000  15.080000  0.000000   0.000000   0.000000  
FT3in2g          88.500000  13.000000  0.000000   0.000000   0.000000  
FT3out1          89.000000  13.670000  0.000000   0.000000   0.000000  
FT3out1w         88.500000  13.000000  0.000000   0.000000   0.000000  
FT3out2          89.000000  13.670000  0.000000   0.000000   0.000000  
FT3out2w         88.500000  13.000000  0.000000   0.000000   0.000000  
FT4in1           87.670000  15.080000  0.000000   0.000000   0.000000  
FT4in1g          88.500000  13.000000  0.000000   0.000000   0.000000  
FT4in2           87.670000  15.080000  0.000000   0.000000   0.000000  
FT4in2g          88.500000  13.000000  0.000000   0.000000   0.000000  
FT4out1          89.000000  13.670000  0.000000   0.000000   0.000000  
FT4out1w         88.500000  13.000000  0.000000   0.000000   0.000000  
FT4out2          89.000000  13.670000  0.000000   0.000000   0.000000  
FT4out2w         88.500000  13.000000  0.000000   0.000000   0.000000  
FT5in1           87.670000  15.080000  0.000000   0.000000   0.000000  
FT5in1g          88.500000  13.000000  0.000000   0.000000   0.000000  
FT5in2           87.670000  15.080000  0.000000   0.000000   0.000000  
FT5in2g          88.500000  13.000000  0.000000   0.000000   0.000000  
FT5out1          89.000000  13.670000  0.000000   0.000000   0.000000  
FT5out1w         88.500000  13.000000  0.000000   0.000000   0.000000  
FT5out2          89.000000  13.670000  0.000000   0.000000   0.000000  
FT5out2w         88.500000  13.000000  0.000000   0.000000   0.000000  
FT6in1           87.670000  15.080000  0.000000   0.000000   0.000000  
FT6in1g          88.500000  13.000000  0.000000   0.000000   0.000000  
FT6in2           87.670000  15.080000  0.000000   0.000000   0.000000  
FT6in2g          88.500000  13.000000  0.000000   0.000000   0.000000  
FT6out1          89.000000  13.670000  0.000000   0.000000   0.000000  
FT6out1w         88.500000  13.000000  0.000000   0.000000   0.000000  
FT6out2          89.000000  13.670000  0.000000   0.000000   0.000000  
FT6out2w         88.500000  13.000000  0.000000   0.000000   0.000000  
FT7in1           87.670000  15.080000  0.000000   0.000000   0.000000  
FT7in1g          88.500000  13.000000  0.000000   0.000000   0.000000  
FT7in2           87.670000  15.080000  0.000000   0.000000   0.000000  
FT7in2g          88.500000  13.000000  0.000000   0.000000   0.000000  
FT7out1          89.000000  13.670000  0.000000   0.000000   0.000000  
FT7out1w         88.500000  13.000000  0.000000   0.000000   0.000000  
FT7out2          89.000000  13.670000  0.000000   0.000000   0.000000  
FT7out2w         88.500000  13.000000  0.000000   0.000000   0.000000  
FT8in1           87.670000  15.080000  0.000000   0.000000   0.000000  
FT8in1g          88.500000  13.000000  0.000000   0.000000   0.000000  
FT8in2           87.670000  15.080000  0.000000   0.000000   0.000000  
FT8in2g          88.500000  13.000000  0.000000   0.000000   0.000000  
FT8out1          89.000000  13.670000  0.000000   0.000000   0.000000  
FT8out1w         88.500000  13.000000  0.000000   0.000000   0.000000  
FT8out2          89.000000  13.670000  0.000000   0.000000   0.000000  
FT8out2w         88.500000  13.000000  0.000000   0.000000   0.000000  
FT9in1           87.670000  15.080000  0.000000   0.000000   0.000000  
FT9in1g          88.500000  13.000000  0.000000   0.000000   0.000000  
FT9in2           87.670000  15.080000  0.000000   0.000000   0.000000  
FT9in2g          88.500000  13.000000  0.000000   0.000000   0.000000  
FT9out1          89.000000  13.670000  0.000000   0.000000   0.000000  
FT9out1w         88.500000  13.000000  0.000000   0.000000   0.000000  
FT9out2          89.000000  13.670000  0.000000   0.000000   0.000000  
FT9out2w         88.500000  13.000000  0.000000   0.000000   0.000000  
G1in             97.500000  11.950000  0.000000   0.000000   0.000000  
G1in!            97.500000  11.950000  0.000000   0.000000   0.000000  
G1out            98.000000  11.450000  0.000000   0.000000   0.000000  
G1out!           98.000000  11.450000  0.000000   0.000000   0.000000  
G1weir           97.500000  11.950000  0.000000   0.000000   0.000000  
G1weir!          97.500000  11.950000  0.000000   0.000000   0.000000  
G2in             97.500000  11.950000  0.000000   0.000000   0.000000  
G2out            98.000000  11.450000  0.000000   0.000000   0.000000  
G2weir           97.500000  11.950000  0.000000   0.000000   0.000000  
G3in             97.500000  11.950000  0.000000   0.000000   0.000000  
G3out            98.000000  11.450000  0.000000   0.000000   0.000000  
G3weir           97.500000  11.950000  0.000000   0.000000   0.000000  
G4in             97.500000  11.950000  0.000000   0.000000   0.000000  
G4out            98.000000  11.450000  0.000000   0.000000   0.000000  
G4weir           97.500000  11.950000  0.000000   0.000000   0.000000  
Grit1_InGateD    98.000000  11.450000  0.000000   0.000000   0.000000  
Grit1_InGateD!   98.000000  11.450000  0.000000   0.000000   0.000000  
Grit1_OutGateU   98.000000  11.450000  0.000000   0.000000   0.000000  
Grit1_OutGateU!  98.000000  11.450000  0.000000   0.000000   0.000000  
Grit1-2_In       97.500000  14.080000  0.000000   0.000000   0.000000  
Grit1-2_In!      97.500000  14.080000  0.000000   0.000000   0.000000  
Grit1-2_InGateU  97.500000  11.950000  0.000000   0.000000   0.000000  
Grit1-2_InGateU! 97.500000  11.950000  0.000000   0.000000   0.000000  
Grit1-2_Out      96.250000  13.200000  0.000000   0.000000   0.000000  
Grit1-2_Out!     96.250000  13.200000  0.000000   0.000000   0.000000  
Grit2_InGateD    98.000000  11.450000  0.000000   0.000000   0.000000  
Grit2_OutGateU   98.000000  11.450000  0.000000   0.000000   0.000000  
Grit3_InGateD    98.000000  11.450000  0.000000   0.000000   0.000000  
Grit3_OutGateU   98.000000  11.450000  0.000000   0.000000   0.000000  
Grit3-4_GateU    97.500000  11.950000  0.000000   0.000000   0.000000  
Grit3-4_In       97.500000  14.020000  0.000000   0.000000   0.000000  
Grit3-4_Out      96.250000  13.200000  0.000000   0.000000   0.000000  
Grit4_InGateD    98.000000  11.450000  0.000000   0.000000   0.000000  
Grit4_OutGateU   98.000000  11.450000  0.000000   0.000000   0.000000  
GritOut          96.217192  11.082808  0.000000   0.000000   0.000000  
HighLevelC       99.500000  12.000000  0.000000   0.000000   0.000000  
HighLevelE       99.500000  12.000000  0.000000   0.000000   0.000000  
HighLevelW       99.500000  12.000000  0.000000   0.000000   0.000000  
Junction         80.000000  20.000000  0.000000   0.000000   0.000000  
LowLevel         106.170000 5.330000   0.000000   0.000000   0.000000  
LowLevelIn       106.170000 5.330000   0.000000   0.000000   0.000000  
P11_A            96.250000  11.510000  0.000000   0.000000   0.000000  
P11_Effluent     94.000000  12.580000  0.000000   0.000000   0.000000  
P11_In           93.000000  13.580000  0.000000   0.000000   0.000000  
P11_W            99.217192  7.362808   0.000000   0.000000   0.000000  
P11_Wout         93.000000  13.580000  0.000000   0.000000   0.000000  
P12_A            96.250000  11.510000  0.000000   0.000000   0.000000  
P12_Effluent     94.000000  12.580000  0.000000   0.000000   0.000000  
P12_In           93.000000  13.580000  0.000000   0.000000   0.000000  
P12_W            99.217192  7.362808   0.000000   0.000000   0.000000  
P12_Wout         93.000000  13.580000  0.000000   0.000000   0.000000  
P13_A            96.250000  11.510000  0.000000   0.000000   0.000000  
P13_Effluent     94.000000  12.580000  0.000000   0.000000   0.000000  
P13_In           93.000000  13.580000  0.000000   0.000000   0.000000  
P13_W            99.217192  7.362808   0.000000   0.000000   0.000000  
P13_Wout         93.000000  13.580000  0.000000   0.000000   0.000000  
P14_A            96.250000  11.510000  0.000000   0.000000   0.000000  
P14_Effluent     94.000000  12.580000  0.000000   0.000000   0.000000  
P14_In           93.000000  13.580000  0.000000   0.000000   0.000000  
P14_W            99.217192  7.362808   0.000000   0.000000   0.000000  
P14_Wout         93.000000  13.580000  0.000000   0.000000   0.000000  
P15_A            96.250000  11.510000  0.000000   0.000000   0.000000  
P15_Effluent     94.000000  12.580000  0.000000   0.000000   0.000000  
P15_In           93.000000  13.580000  0.000000   0.000000   0.000000  
P15_W            99.217192  7.362808   0.000000   0.000000   0.000000  
P15_Wout         93.000000  13.580000  0.000000   0.000000   0.000000  
P16_A            96.250000  11.510000  0.000000   0.000000   0.000000  
P16_Effluent     94.000000  12.580000  0.000000   0.000000   0.000000  
P16_In           93.000000  13.580000  0.000000   0.000000   0.000000  
P16_W            99.217192  7.362808   0.000000   0.000000   0.000000  
P16_Wout         93.000000  13.580000  0.000000   0.000000   0.000000  
P17_A            96.250000  11.510000  0.000000   0.000000   0.000000  
P17_Effluent     94.000000  12.580000  0.000000   0.000000   0.000000  
P17_In           93.000000  13.580000  0.000000   0.000000   0.000000  
P17_W            99.217192  7.362808   0.000000   0.000000   0.000000  
P17_Wout         93.000000  13.580000  0.000000   0.000000   0.000000  
P21_A            96.250000  11.550000  0.000000   0.000000   0.000000  
P21_Effluent     94.000000  12.600000  0.000000   0.000000   0.000000  
P21_In           93.000000  13.600000  0.000000   0.000000   0.000000  
P21_W            99.217192  7.382808   0.000000   0.000000   0.000000  
P21_Wout         93.000000  13.600000  0.000000   0.000000   0.000000  
P22_A            96.250000  11.550000  0.000000   0.000000   0.000000  
P22_Effluent     94.000000  12.600000  0.000000   0.000000   0.000000  
P22_In           93.000000  13.600000  0.000000   0.000000   0.000000  
P22_W            99.217192  7.382808   0.000000   0.000000   0.000000  
P22_Wout         93.000000  13.600000  0.000000   0.000000   0.000000  
P23_A            96.250000  11.550000  0.000000   0.000000   0.000000  
P23_Effluent     94.000000  12.600000  0.000000   0.000000   0.000000  
P23_In           93.000000  13.600000  0.000000   0.000000   0.000000  
P23_W            99.217192  7.382808   0.000000   0.000000   0.000000  
P23_Wout         93.000000  13.600000  0.000000   0.000000   0.000000  
P24_A            96.250000  11.550000  0.000000   0.000000   0.000000  
P24_Effluent     94.000000  12.600000  0.000000   0.000000   0.000000  
P24_In           93.000000  13.600000  0.000000   0.000000   0.000000  
P24_W            99.217192  7.382808   0.000000   0.000000   0.000000  
P24_Wout         93.000000  13.600000  0.000000   0.000000   0.000000  
P25_A            96.250000  11.550000  0.000000   0.000000   0.000000  
P25_Effluent     94.000000  12.600000  0.000000   0.000000   0.000000  
P25_In           93.000000  13.600000  0.000000   0.000000   0.000000  
P25_W            99.217192  7.382808   0.000000   0.000000   0.000000  
P25_Wout         93.000000  13.600000  0.000000   0.000000   0.000000  
P26_A            96.250000  11.550000  0.000000   0.000000   0.000000  
P26_Effluent     94.000000  12.600000  0.000000   0.000000   0.000000  
P26_In           93.000000  13.600000  0.000000   0.000000   0.000000  
P26_W            99.217192  7.382808   0.000000   0.000000   0.000000  
P26_Wout         93.000000  13.600000  0.000000   0.000000   0.000000  
P27_A            96.250000  11.550000  0.000000   0.000000   0.000000  
P27_Effluent     94.000000  12.600000  0.000000   0.000000   0.000000  
P27_In           93.000000  13.600000  0.000000   0.000000   0.000000  