[TITLE]


[OPTIONS]
;;Options            Value
;;------------------ ------------
FLOW_UNITS           CFS
INFILTRATION         GREEN_AMPT
FLOW_ROUTING         DYNWAVE
START_DATE           07/07/1990
START_TIME           00:00:00
REPORT_START_DATE    07/07/1990
REPORT_START_TIME    00:00:00
END_DATE             07/07/1990
END_TIME             06:00:00
SWEEP_START          01/01
SWEEP_END            12/31
DRY_DAYS             0
REPORT_STEP          00:01:00
WET_STEP             00:05:00
DRY_STEP             00:05:00
ROUTING_STEP         0.5
ALLOW_PONDING        NO
INERTIAL_DAMPING     FULL
VARIABLE_STEP        0.75
LENGTHENING_STEP     0
MIN_SURFAREA         1
NORMAL_FLOW_LIMITED  BOTH
SKIP_STEADY_STATE    NO
FORCE_MAIN_EQUATION  H-W
LINK_OFFSETS         DEPTH
MIN_SLOPE            0
MAX_TRIALS           8
HEAD_TOLERANCE       0.005
SYS_FLOW_TOL         5
LAT_FLOW_TOL         5
MINIMUM_STEP         0.5
THREADS              8

[EVAPORATION]
;;Type          Parameters
;;------------- ----------
MONTHLY      0.14   0.21   0.28   0.38   0.46   0.52   0.46   0.40   0.36   0.28   0.19   0.15  
DRY_ONLY     NO

[RAINGAGES]
;;               Rain      Time   Snow   Data      
;;Name           Type      Intrvl Catch  Source    
;;-------------- --------- ------ ------ ----------
CrownKing        VOLUME    0:15   1.0    FILE       "C:\PCSWMM\Workshop\2D\NewRiver_2D_files\CROWN KING AZ_022329_Precip_1980-2010.prn" 022329     IN   
NewRiver_100year INTENSITY 0:01   1.0    TIMESERIES NewRiver_100year

[SUBCATCHMENTS]
;;                                                 Total    Pcnt.             Pcnt.    Curb     Snow    
;;Name           Raingage         Outlet           Area     Imperv   Width    Slope    Length   Pack    
;;-------------- ---------------- ---------------- -------- -------- -------- -------- -------- --------
S166             NewRiver_100year J2107            214.6885 46.6     898.703  18.577   0                        
S168             NewRiver_100year J2984            312.7008 46.6     1327.826 14.082   0                        
S170             NewRiver_100year J2890            160.7658 46.6     1253.538 22.717   0                        
S184             NewRiver_100year J1184            126.9516 46.6     1252.974 12.336   0                        
S195             NewRiver_100year J2751            173.6277 46.6     1824.104 21.554   0                        
S198             NewRiver_100year J1119            19.9384  46.6     587.211  26.204   0                        
S201             NewRiver_100year J950             79.5346  46.6     880.424  33.879   0                        
S204             NewRiver_100year J1849            103.5476 46.6     1000.423 31.995   0                        

[SUBAREAS]
;;Subcatchment   N-Imperv   N-Perv     S-Imperv   S-Perv     PctZero    RouteTo    PctRouted 
;;-------------- ---------- ---------- ---------- ---------- ---------- ---------- ----------
S166             0.011      0.15       1.773      3.5        25         OUTLET    
S168             0.011      0.15       1.773      3.5        25         OUTLET    
S170             0.011      0.15       1.773      3.5        25         OUTLET    
S184             0.011      0.15       1.773      3.5        25         OUTLET    
S195             0.011      0.15       1.773      3.5        25         OUTLET    
S198             0.011      0.15       1.773      3.5        25         OUTLET    
S201             0.011      0.15       1.773      3.5        25         OUTLET    
S204             0.011      0.15       1.773      3.5        25         OUTLET    

[INFILTRATION]
;;Subcatchment   Suction    HydCon     IMDmax    
;;-------------- ---------- ---------- ----------
S166             5.899      0.22       0.366     
S168             6.163      0.22       0.363     
S170             5.445      0.197      0.363     
S184             6.109      0.21       0.361     
S195             3.638      0.107      0.351     
S198             5.302      0.122      0.339     
S201             3.601      0.105      0.351     
S204             3.573      0.104      0.35      

[JUNCTIONS]
;;               Invert     Max.       Init.      Surcharge  Ponded    
;;Name           Elev.      Depth      Depth      Depth      Area      
;;-------------- ---------- ---------- ---------- ---------- ----------
J1               2313.933   0          0          0          0         
J10              2370.905   30         0          0          0         
J100             2345.216   30         0          0          0         
J1000            2269.477   30         0          0          0         
J1001            2269.254   30         0          0          0         
J1002            2269.254   30         0          0          0         
J1003            2269.254   30         0          0          0         
J1004            2269.254   30         0          0          0         
J1005            2269.254   30         0          0          0         
J1006            2269.254   30         0          0          0         
J1007            2269.254   30         0          0          0         
J1008            2270.169   30         0          0          0         
J1009            2273.48    30         0          0          0         
J101             2336.502   30         0          0          0         
J1010            2276.069   30         0          0          0         
J1011            2276.68    30         0          0          0         
J1012            2286.402   30         0          0          0         
J1013            2295.51    30         0          0          0         
J1014            2304.095   30         0          0          0         
J1015            2319.897   30         0          0          0         
J1016            2320.457   30         0          0          0         
J1017            2325.928   30         0          0          0         
J1018            2332.91    30         0          0          0         
J1019            2268.327   30         0          0          0         
J102             2340.555   30         0          0          0         
J1020            2271.923   30         0          0          0         
J1021            2257.849   30         0          0          0         
J1022            2249.147   30         0          0          0         
J1023            2238.39    30         0          0          0         
J1024            2269.419   30         0          0          0         
J1025            2269.953   30         0          0          0         
J1026            2273.907   30         0          0          0         
J1027            2275.078   30         0          0          0         
J1028            2280.192   30         0          0          0         
J1029            2284.748   30         0          0          0         
J103             2347.083   30         0          0          0         
J1030            2269.254   30         0          0          0         
J1031            2269.254   30         0          0          0         
J1032            2269.254   30         0          0          0         
J1033            2270.597   30         0          0          0         
J1034            2273.278   30         0          0          0         
J1035            2275.52    30         0          0          0         
J1036            2281.314   30         0          0          0         
J1037            2283.228   30         0          0          0         
J1038            2281.192   30         0          0          0         
J1039            2313.72    30         0          0          0         
J104             2357.594   30         0          0          0         
J1040            2325.704   30         0          0          0         
J1041            2344.679   30         0          0          0         
J1042            2353.079   30         0          0          0         
J1043            2251.313   30         0          0          0         
J1044            2268.507   30         0          0          0         
J1045            2274.437   30         0          0          0         
J1046            2280.566   30         0          0          0         
J1047            2289.463   30         0          0          0         
J1048            2298.281   30         0          0          0         
J1049            2302.553   30         0          0          0         
J105             2366.651   30         0          0          0         
J1050            2309.51    30         0          0          0         
J1051            2307.149   30         0          0          0         
J1052            2288.526   30         0          0          0         
J1053            2280.588   30         0          0          0         
J1054            2269.294   30         0          0          0         
J1055            2272.98    30         0          0          0         
J1056            2277.909   30         0          0          0         
J1057            2280.878   30         0          0          0         
J1058            2288.647   30         0          0          0         
J1059            2297.698   30         0          0          0         
J106             2391.736   30         0          0          0         
J1060            2297.065   30         0          0          0         
J1061            2298.608   30         0          0          0         
J1062            2354.832   30         0          0          0         
J1063            2271.228   30         0          0          0         
J1064            2275.265   30         0          0          0         
J1065            2302.296   30         0          0          0         
J1066            2326.286   30         0          0          0         
J1067            2331.653   30         0          0          0         
J1068            2332.725   30         0          0          0         
J1069            2332.887   30         0          0          0         
J107             2406.066   30         0          0          0         
J1070            2357.123   30         0          0          0         
J1071            2370.309   30         0          0          0         
J1072            2323.266   30         0          0          0         
J1073            2306.291   30         0          0          0         
J1074            2294.437   30         0          0          0         
J1075            2286.033   30         0          0          0         
J1076            2275.517   30         0          0          0         
J1077            2270.705   30         0          0          0         
J1078            2275.352   30         0          0          0         
J1079            2280.612   30         0          0          0         
J108             2410.858   30         0          0          0         
J1080            2284.085   30         0          0          0         
J1081            2293.445   30         0          0          0         
J1082            2299.421   30         0          0          0         
J1083            2313.297   30         0          0          0         
J1084            2327.612   30         0          0          0         
J1085            2271.916   30         0          0          0         
J1086            2303.156   30         0          0          0         
J1087            2359.98    30         0          0          0         
J1088            2393.968   30         0          0          0         
J1089            2423.709   30         0          0          0         
J109             2412.942   30         0          0          0         
J1090            2421.002   30         0          0          0         
J1091            2416.332   30         0          0          0         
J1092            2263.638   30         0          0          0         
J1093            2271.348   30         0          0          0         
J1094            2278.323   30         0          0          0         
J1095            2306.506   30         0          0          0         
J1096            2393.267   30         0          0          0         
J1097            2437.822   30         0          0          0         
J1098            2453.572   30         0          0          0         
J1099            2249.231   30         0          0          0         
J11              2402.375   30         0          0          0         
J110             2412.494   30         0          0          0         
J1100            2263.664   30         0          0          0         
J1101            2270.769   30         0          0          0         
J1102            2287.232   30         0          0          0         
J1103            2324.18    30         0          0          0         
J1104            2409.122   30         0          0          0         
J1105            2445.232   30         0          0          0         
J1106            2255.354   30         0          0          0         
J1107            2265.639   30         0          0          0         
J1108            2276.602   30         0          0          0         
J1109            2279.32    30         0          0          0         
J111             2407.674   30         0          0          0         
J1110            2312.456   30         0          0          0         
J1111            2364.213   30         0          0          0         
J1112            2274.327   30         0          0          0         
J1113            2260.078   30         0          0          0         
J1114            2291.985   30         0          0          0         
J1115            2309.428   30         0          0          0         
J1116            2324.311   30         0          0          0         
J1117            2293.552   30         0          0          0         
J1118            2325.712   30         0          0          0         
J1119            2231.823   30         0          0          0         
J112             2403.488   30         0          0          0         
J1120            2232.039   30         0          0          0         
J1121            2232.515   30         0          0          0         
J1122            2232.97    30         0          0          0         
J1123            2234.697   30         0          0          0         
J1124            2237.668   30         0          0          0         
J1125            2238.98    30         0          0          0         
J1126            2241.785   30         0          0          0         
J1127            2249.151   30         0          0          0         
J1128            2232.283   30         0          0          0         
J1129            2232.754   30         0          0          0         
J113             2397.175   30         0          0          0         
J1130            2232.832   30         0          0          0         
J1131            2233.35    30         0          0          0         
J1132            2234.045   30         0          0          0         
J1133            2236.674   30         0          0          0         
J1134            2239.162   30         0          0          0         
J1135            2242.094   30         0          0          0         
J1136            2232.391   30         0          0          0         
J1137            2235.398   30         0          0          0         
J1138            2239.542   30         0          0          0         
J1139            2240.856   30         0          0          0         
J114             2394.954   30         0          0          0         
J1140            2242.623   30         0          0          0         
J1141            2233.286   30         0          0          0         
J1142            2233.27    30         0          0          0         
J1143            2233.414   30         0          0          0         
J1144            2233.705   30         0          0          0         
J1145            2234.461   30         0          0          0         
J1146            2235.732   30         0          0          0         
J1147            2239.046   30         0          0          0         
J1148            2242.715   30         0          0          0         
J1149            2233.13    30         0          0          0         
J115             2392.556   30         0          0          0         
J1150            2234.876   30         0          0          0         
J1151            2238.981   30         0          0          0         
J1152            2245.598   30         0          0          0         
J1153            2246.241   30         0          0          0         
J1154            2234.667   30         0          0          0         
J1155            2234.269   30         0          0          0         
J1156            2233.584   30         0          0          0         
J1157            2234.602   30         0          0          0         
J1158            2234.576   30         0          0          0         
J1159            2235.597   30         0          0          0         
J116             2388.841   30         0          0          0         
J1160            2237.479   30         0          0          0         
J1161            2240.206   30         0          0          0         
J1162            2235.037   30         0          0          0         
J1163            2235.113   30         0          0          0         
J1164            2240.308   30         0          0          0         
J1165            2244.669   30         0          0          0         
J1166            2249.51    30         0          0          0         
J1167            2235.935   30         0          0          0         
J1168            2235.653   30         0          0          0         
J1169            2236.065   30         0          0          0         
J117             2377.449   30         0          0          0         
J1170            2235.47    30         0          0          0         
J1171            2234.812   30         0          0          0         
J1172            2235.462   30         0          0          0         
J1173            2236.427   30         0          0          0         
J1174            2238.515   30         0          0          0         
J1175            2236.795   30         0          0          0         
J1176            2237.012   30         0          0          0         
J1177            2238.07    30         0          0          0         
J1178            2243.092   30         0          0          0         
J1179            2247.96    30         0          0          0         
J118             2361.619   30         0          0          0         
J1180            2237.738   30         0          0          0         
J1181            2237.957   30         0          0          0         
J1182            2237.303   30         0          0          0         
J1183            2236.459   30         0          0          0         
J1184            2235.88    30         0          0          0         
J1185            2237.158   30         0          0          0         
J1186            2236.801   30         0          0          0         
J1187            2238.416   30         0          0          0         
J1188            2239.171   30         0          0          0         
J1189            2238.106   30         0          0          0         
J119             2336.515   30         0          0          0         
J1190            2239.983   30         0          0          0         
J1191            2249.519   30         0          0          0         
J1192            2238.906   30         0          0          0         
J1193            2239.081   30         0          0          0         
J1194            2238.599   30         0          0          0         
J1195            2237.885   30         0          0          0         
J1196            2238.407   30         0          0          0         
J1197            2238.334   30         0          0          0         
J1198            2237.562   30         0          0          0         
J1199            2240.258   30         0          0          0         
J12              2409.636   30         0          0          0         
J120             2371.245   30         0          0          0         
J1200            2241.442   30         0          0          0         
J1201            2241.87    30         0          0          0         
J1202            2240.716   30         0          0          0         
J1203            2246.123   30         0          0          0         
J1204            2241.093   30         0          0          0         
J1205            2240.179   30         0          0          0         
J1206            2239.458   30         0          0          0         
J1207            2239.08    30         0          0          0         
J1208            2239.9     30         0          0          0         
J1209            2240.094   30         0          0          0         
J121             2325.786   30         0          0          0         
J1210            2238.869   30         0          0          0         
J1211            2241.264   30         0          0          0         
J1212            2242.805   30         0          0          0         
J1213            2242.36    30         0          0          0         
J1214            2241.433   30         0          0          0         
J1215            2241.93    30         0          0          0         
J1216            2241.886   30         0          0          0         
J1217            2240.972   30         0          0          0         
J1218            2240.299   30         0          0          0         
J1219            2240.318   30         0          0          0         
J122             2325.497   30         0          0          0         
J1220            2241.227   30         0          0          0         
J1221            2241.702   30         0          0          0         
J1222            2241.793   30         0          0          0         
J1223            2243.845   30         0          0          0         
J1224            2243.975   30         0          0          0         
J1225            2244.066   30         0          0          0         
J1226            2242.891   30         0          0          0         
J1227            2242.8     30         0          0          0         
J1228            2249.231   30         0          0          0         
J1229            2243.399   30         0          0          0         
J123             2340.64    30         0          0          0         
J1230            2242.196   30         0          0          0         
J1231            2242.255   30         0          0          0         
J1232            2241.176   30         0          0          0         
J1233            2241.428   30         0          0          0         
J1234            2242.742   30         0          0          0         
J1235            2242.648   30         0          0          0         
J1236            2245.737   30         0          0          0         
J1237            2247.655   30         0          0          0         
J1238            2246.055   30         0          0          0         
J1239            2245.544   30         0          0          0         
J124             2346.56    30         0          0          0         
J1240            2245.275   30         0          0          0         
J1241            2250.731   30         0          0          0         
J1242            2245.399   30         0          0          0         
J1243            2245.468   30         0          0          0         
J1244            2243.448   30         0          0          0         
J1245            2241.958   30         0          0          0         
J1246            2242.4     30         0          0          0         
J1247            2245.039   30         0          0          0         
J1248            2248.369   30         0          0          0         
J1249            2249.517   30         0          0          0         
J125             2334.469   30         0          0          0         
J1250            2246.708   30         0          0          0         
J1251            2246.887   30         0          0          0         
J1252            2249.218   30         0          0          0         
J1253            2249.181   30         0          0          0         
J1254            2249.547   30         0          0          0         
J1255            2248.13    30         0          0          0         
J1256            2247.838   30         0          0          0         
J1257            2245.606   30         0          0          0         
J1258            2245.924   30         0          0          0         
J1259            2247.427   30         0          0          0         
J126             2326.332   30         0          0          0         
J1260            2249.771   30         0          0          0         
J1261            2250.558   30         0          0          0         
J1262            2249.531   30         0          0          0         
J1263            2250.135   30         0          0          0         
J1264            2253.609   30         0          0          0         
J1265            2254.26    30         0          0          0         
J1266            2250.63    30         0          0          0         
J1267            2250.551   30         0          0          0         
J1268            2249.052   30         0          0          0         
J1269            2249.246   30         0          0          0         
J127             2317.149   30         0          0          0         
J1270            2250.155   30         0          0          0         
J1271            2250.956   30         0          0          0         
J1272            2250.704   30         0          0          0         
J1273            2251.64    30         0          0          0         
J1274            2250.696   30         0          0          0         
J1275            2253.212   30         0          0          0         
J1276            2253.36    30         0          0          0         
J1277            2259.218   30         0          0          0         
J1278            2251.784   30         0          0          0         
J1279            2251.807   30         0          0          0         
J128             2324.871   30         0          0          0         
J1280            2250.344   30         0          0          0         
J1281            2250.9     30         0          0          0         
J1282            2250.831   30         0          0          0         
J1283            2251.684   30         0          0          0         
J1284            2252.566   30         0          0          0         
J1285            2252.652   30         0          0          0         
J1286            2254.943   30         0          0          0         
J1287            2256.244   30         0          0          0         
J1288            2259.565   30         0          0          0         
J1289            2253.922   30         0          0          0         
J129             2330.56    30         0          0          0         
J1290            2252.377   30         0          0          0         
J1291            2252.167   30         0          0          0         
J1292            2251.622   30         0          0          0         
J1293            2253.316   30         0          0          0         
J1294            2253.777   30         0          0          0         
J1295            2253.943   30         0          0          0         
J1296            2255.525   30         0          0          0         
J1297            2257.181   30         0          0          0         
J1298            2260.726   30         0          0          0         
J1299            2261.782   30         0          0          0         
J13              2430.135   30         0          0          0         
J130             2339.292   30         0          0          0         
J1300            2254.237   30         0          0          0         
J1301            2253.786   30         0          0          0         
J1302            2252.925   30         0          0          0         
J1303            2253.822   30         0          0          0         
J1304            2254.032   30         0          0          0         
J1305            2255.369   30         0          0          0         
J1306            2256.442   30         0          0          0         
J1307            2257.14    30         0          0          0         
J1308            2258.109   30         0          0          0         
J1309            2263.287   30         0          0          0         
J131             2344.686   30         0          0          0         
J1310            2264.369   30         0          0          0         
J1311            2255.008   30         0          0          0         
J1312            2254.302   30         0          0          0         
J1313            2253.884   30         0          0          0         
J1314            2254.438   30         0          0          0         
J1315            2255.941   30         0          0          0         
J1316            2258.439   30         0          0          0         
J1317            2256.7     30         0          0          0         
J1318            2257.628   30         0          0          0         