;; 2020-03-24 10:05:00 Generated on machine REMOL9CTW0N2 by user Robert.Dickinson
;; Exported from SimPrep encoding=UTF8
[TITLE]
DM does not validate so Dummy Links are Gothic


[OPTIONS]
ALLOW_PONDING NO
HEAD_TOLERANCE 0.001000
INERTIAL_DAMPING NONE
INFILTRATION HORTON
MAX_TRIALS 8
MIN_SLOPE 0.000000
MIN_SURFAREA 12.557000
NORMAL_FLOW_LIMITED BOTH
FLOW_UNITS CFS
FORCE_MAIN_EQUATION H-W
FLOW_ROUTING DYNWAVE
LINK_OFFSETS ELEVATION
IGNORE_RAINFALL NO
IGNORE_SNOWMELT NO
IGNORE_GROUNDWATER NO
IGNORE_RDII NO
IGNORE_ROUTING NO
IGNORE_QUALITY NO
SKIP_STEADY_STATE NO
SYS_FLOW_TOL 5.000000
LAT_FLOW_TOL 5.000000
START_DATE 01/01/2020
START_TIME 00:00:00
END_DATE 01/01/2020
END_TIME 03:00:00
REPORT_START_DATE 01/01/2020
REPORT_START_TIME 00:00:00
SWEEP_START 01/01
SWEEP_END 12/31
DRY_DAYS 0.000000
REPORT_STEP 00:00:30
WET_STEP 00:01:00
DRY_STEP 00:01:00
ROUTING_STEP 10.000000
LENGTHENING_STEP 0.000000
VARIABLE_STEP 0.750000
MINIMUM_STEP 0.000000

[REPORT]
;;INPUT YES/NO
;;CONTINUITY YES/NO
;;FLOWSTATS YES/NO
;;CONTROLS YES/NO
;;AVERAGES YES/NO
;;SUBCATCHMENTS ALL/NONE/<list_of_subcatchment_names>
;;NODES ALL/NONE/<list_of_node_names>
;;LINKS ALL/NONE/<list_of_link_names>
INPUT YES
CONTINUITY YES
FLOWSTATS YES
CONTROLS NO
AVERAGES NO
SUBCATCHMENTS NONE
NODES AR__N1.0 AR__N1.1 AR__N1.2 AR__N1.3 AR__N2.0 AR__N2.1 AR__N2.2 AR__N2.3 AR__N3.0 AR__N3.1 AR__N3.2 AR__N3.3 AR__N4.0 AR__N4.1 AR__N4.2 AR__N4.3 AR__N5.0 AR__N5.1 AR__N5.2 AR__N5.3 AR__N6.0
NODES AR__N6.1 AR__N6.2 AR__N6.3 C_N1.0 C_N1.1 C_N1.2 C_N1.3 C_N2.0 C_N2.1 C_N2.2 C_N2.3 C_N3.0 C_N3.1 C_N3.2 C_N3.3 C_N4.0 C_N4.1 C_N4.2 C_N4.3 C_N5.0
NODES C_N5.1 C_N5.2 C_N5.3 C_N6.0 C_N6.1 C_N6.2 C_N6.3 CAT__N1.0 CAT__N1.1 CAT__N1.2 CAT__N1.3 CAT__N2.0 CAT__N2.1 CAT__N2.2 CAT__N2.3 CAT__N3.0 CAT__N3.1 CAT__N3.2 CAT__N3.3 CAT__N4.0
NODES CAT__N4.1 CAT__N4.2 CAT__N4.3 CAT__N5.0 CAT__N5.1 CAT__N5.2 CAT__N5.3 CAT__N6.0 CAT__N6.1 CAT__N6.2 CAT__N6.3 CS__N1.0 CS__N1.1 CS__N1.2 CS__N1.3 CS__N2.0 CS__N2.1 CS__N2.2 CS__N2.3 CS__N3.0
NODES CS__N3.1 CS__N3.2 CS__N3.3 CS__N4.0 CS__N4.1 CS__N4.2 CS__N4.3 CS__N5.0 CS__N5.1 CS__N5.2 CS__N5.3 CS__N6.0 CS__N6.1 CS__N6.2 CS__N6.3 DM_N1.0 DM_N1.1 DM_N1.2 DM_N1.3 DM_N2.0
NODES DM_N2.1 DM_N2.2 DM_N2.3 DM_N3.0 DM_N3.1 DM_N3.2 DM_N3.3 DM_N4.0 DM_N4.1 DM_N4.2 DM_N4.3 DM_N5.0 DM_N5.1 DM_N5.2 DM_N5.3 DM_N6.0 DM_N6.1 DM_N6.2 DM_N6.3 EG__N1.0
NODES EG__N1.1 EG__N1.2 EG__N1.3 EG__N2.0 EG__N2.1 EG__N2.2 EG__N2.3 EG__N3.0 EG__N3.1 EG__N3.2 EG__N3.3 EG__N4.0 EG__N4.1 EG__N4.2 EG__N4.3 EG__N5.0 EG__N5.1 EG__N5.2 EG__N5.3 EG__N6.0
NODES EG__N6.1 EG__N6.2 EG__N6.3 FC_N1.0 FC_N1.1 FC_N1.2 FC_N1.3 FC_N2.0 FC_N2.1 FC_N2.2 FC_N2.3 FC_N3.0 FC_N3.1 FC_N3.2 FC_N3.3 FC_N4.0 FC_N4.1 FC_N4.2 FC_N4.3 FC_N5.0
NODES FC_N5.1 FC_N5.2 FC_N5.3 FC_N6.0 FC_N6.1 FC_N6.2 FC_N6.3 FM__N1.0 FM__N1.1 FM__N1.2 FM__N1.3 FM__N2.0 FM__N2.1 FM__N2.2 FM__N2.3 FM__N3.0 FM__N3.1 FM__N3.2 FM__N3.3 FM__N4.0
NODES FM__N4.1 FM__N4.2 FM__N4.3 FM__N5.0 FM__N5.1 FM__N5.2 FM__N5.3 FM__N6.0 FM__N6.1 FM__N6.2 FM__N6.3 GT__N1.0 GT__N1.1 GT__N1.2 GT__N1.3 GT__N2.0 GT__N2.1 GT__N2.2 GT__N2.3 GT__N3.0
NODES GT__N3.1 GT__N3.2 GT__N3.3 GT__N4.0 GT__N4.1 GT__N4.2 GT__N4.3 GT__N5.0 GT__N5.1 GT__N5.2 GT__N5.3 GT__N6.0 GT__N6.1 GT__N6.2 GT__N6.3 HE__N1.0 HE__N1.1 HE__N1.2 HE__N1.3 HE__N2.0
NODES HE__N2.1 HE__N2.2 HE__N2.3 HE__N3.0 HE__N3.1 HE__N3.2 HE__N3.3 HE__N4.0 HE__N4.1 HE__N4.2 HE__N4.3 HE__N5.0 HE__N5.1 HE__N5.2 HE__N5.3 HE__N6.0 HE__N6.1 HE__N6.2 HE__N6.3 HS__N1.0
NODES HS__N1.1 HS__N1.2 HS__N1.3 HS__N2.0 HS__N2.1 HS__N2.2 HS__N2.3 HS__N3.0 HS__N3.1 HS__N3.2 HS__N3.3 HS__N4.0 HS__N4.1 HS__N4.2 HS__N4.3 HS__N5.0 HS__N5.1 HS__N5.2 HS__N5.3 HS__N6.0
NODES HS__N6.1 HS__N6.2 HS__N6.3 IR__N1.0 IR__N1.1 IR__N1.2 IR__N1.3 IR__N2.0 IR__N2.1 IR__N2.2 IR__N2.3 IR__N3.0 IR__N3.1 IR__N3.2 IR__N3.3 IR__N4.0 IR__N4.1 IR__N4.2 IR__N4.3 IR__N5.0
NODES IR__N5.1 IR__N5.2 IR__N5.3 IR__N6.0 IR__N6.1 IR__N6.2 IR__N6.3 MB__N1.0 MB__N1.1 MB__N1.2 MB__N1.3 MB__N2.0 MB__N2.1 MB__N2.2 MB__N2.3 MB__N3.0 MB__N3.1 MB__N3.2 MB__N3.3 MB__N4.0
NODES MB__N4.1 MB__N4.2 MB__N4.3 MB__N5.0 MB__N5.1 MB__N5.2 MB__N5.3 MB__N6.0 MB__N6.1 MB__N6.2 MB__N6.3 PA__N1.0 PA__N1.1 PA__N1.2 PA__N1.3 PA__N2.0 PA__N2.1 PA__N2.2 PA__N2.3 PA__N3.0
NODES PA__N3.1 PA__N3.2 PA__N3.3 PA__N4.0 PA__N4.1 PA__N4.2 PA__N4.3 PA__N5.0 PA__N5.1 PA__N5.2 PA__N5.3 PA__N6.0 PA__N6.1 PA__N6.2 PA__N6.3 PO__N1.0 PO__N1.1 PO__N1.2 PO__N1.3 PO__N2.0
NODES PO__N2.1 PO__N2.2 PO__N2.3 PO__N3.0 PO__N3.1 PO__N3.2 PO__N3.3 PO__N4.0 PO__N4.1 PO__N4.2 PO__N4.3 PO__N5.0 PO__N5.1 PO__N5.2 PO__N5.3 PO__N6.0 PO__N6.1 PO__N6.2 PO__N6.3 RC__N1.0
NODES RC__N1.1 RC__N1.2 RC__N1.3 RC__N2.0 RC__N2.1 RC__N2.2 RC__N2.3 RC__N3.0 RC__N3.1 RC__N3.2 RC__N3.3 RC__N4.0 RC__N4.1 RC__N4.2 RC__N4.3 RC__N5.0 RC__N5.1 RC__N5.2 RC__N5.3 RC__N6.0
NODES RC__N6.1 RC__N6.2 RC__N6.3 RO__N1.0 RO__N1.1 RO__N1.2 RO__N1.3 RO__N2.0 RO__N2.1 RO__N2.2 RO__N2.3 RO__N3.0 RO__N3.1 RO__N3.2 RO__N3.3 RO__N4.0 RO__N4.1 RO__N4.2 RO__N4.3 RO__N5.0
NODES RO__N5.1 RO__N5.2 RO__N5.3 RO__N6.0 RO__N6.1 RO__N6.2 RO__N6.3 RR__N1.0 RR__N1.1 RR__N1.2 RR__N1.3 RR__N2.0 RR__N2.1 RR__N2.2 RR__N2.3 RR__N3.0 RR__N3.1 RR__N3.2 RR__N3.3 RR__N4.0
NODES RR__N4.1 RR__N4.2 RR__N4.3 RR__N5.0 RR__N5.1 RR__N5.2 RR__N5.3 RR__N6.0 RR__N6.1 RR__N6.2 RR__N6.3 RT__N1.0 RT__N1.1 RT__N1.2 RT__N1.3 RT__N2.0 RT__N2.1 RT__N2.2 RT__N2.3 RT__N3.0
NODES RT__N3.1 RT__N3.2 RT__N3.3 RT__N4.0 RT__N4.1 RT__N4.2 RT__N4.3 RT__N5.0 RT__N5.1 RT__N5.2 RT__N5.3 RT__N6.0 RT__N6.1 RT__N6.2 RT__N6.3 SC__N1.0 SC__N1.1 SC__N1.2 SC__N1.3 SC__N2.0
NODES SC__N2.1 SC__N2.2 SC__N2.3 SC__N3.0 SC__N3.1 SC__N3.2 SC__N3.3 SC__N4.0 SC__N4.1 SC__N4.2 SC__N4.3 SC__N5.0 SC__N5.1 SC__N5.2 SC__N5.3 SC__N6.0 SC__N6.1 SC__N6.2 SC__N6.3 SE__N1.0
NODES SE__N1.1 SE__N1.2 SE__N1.3 SE__N2.0 SE__N2.1 SE__N2.2 SE__N2.3 SE__N3.0 SE__N3.1 SE__N3.2 SE__N3.3 SE__N4.0 SE__N4.1 SE__N4.2 SE__N4.3 SE__N5.0 SE__N5.1 SE__N5.2 SE__N5.3 SE__N6.0
NODES SE__N6.1 SE__N6.2 SE__N6.3 TR__N1.0 TR__N1.1 TR__N1.2 TR__N1.3 TR__N2.0 TR__N2.1 TR__N2.2 TR__N2.3 TR__N3.0 TR__N3.1 TR__N3.2 TR__N3.3 TR__N4.0 TR__N4.1 TR__N4.2 TR__N4.3 TR__N5.0
NODES TR__N5.1 TR__N5.2 TR__N5.3 TR__N6.0 TR__N6.1 TR__N6.2 TR__N6.3 TRI__N1.0 TRI__N1.1 TRI__N1.2 TRI__N1.3 TRI__N2.0 TRI__N2.1 TRI__N2.2 TRI__N2.3 TRI__N3.0 TRI__N3.1 TRI__N3.2 TRI__N3.3 TRI__N4.0
NODES TRI__N4.1 TRI__N4.2 TRI__N4.3 TRI__N5.0 TRI__N5.1 TRI__N5.2 TRI__N5.3 TRI__N6.0 TRI__N6.1 TRI__N6.2 TRI__N6.3 VE__N1.0 VE__N1.1 VE__N1.2 VE__N1.3 VE__N2.0 VE__N2.1 VE__N2.2 VE__N2.3 VE__N3.0
NODES VE__N3.1 VE__N3.2 VE__N3.3 VE__N4.0 VE__N4.1 VE__N4.2 VE__N4.3 VE__N5.0 VE__N5.1 VE__N5.2 VE__N5.3 VE__N6.0 VE__N6.1 VE__N6.2 VE__N6.3 AR__OUT1.0 AR__OUT1.1 AR__OUT1.2 AR__OUT1.3 C_OUT1.0
NODES C_OUT1.1 C_OUT1.2 C_OUT1.3 CAT__OUT1.0 CAT__OUT1.1 CAT__OUT1.2 CAT__OUT1.3 CS__OUT1.0 CS__OUT1.1 CS__OUT1.2 CS__OUT1.3 DM_OUT1.0 DM_OUT1.1 DM_OUT1.2 DM_OUT1.3 EG__OUT1.0 EG__OUT1.1 EG__OUT1.2 EG__OUT1.3 FC_OUT1.0
NODES FC_OUT1.1 FC_OUT1.2 FC_OUT1.3 FM__OUT1.0 FM__OUT1.1 FM__OUT1.2 FM__OUT1.3 GT__OUT1.0 GT__OUT1.1 GT__OUT1.2 GT__OUT1.3 HE__OUT1.0 HE__OUT1.1 HE__OUT1.2 HE__OUT1.3 HS__OUT1.0 HS__OUT1.1 HS__OUT1.2 HS__OUT1.3 IR__OUT1.0
NODES IR__OUT1.1 IR__OUT1.2 IR__OUT1.3 MB__OUT1.0 MB__OUT1.1 MB__OUT1.2 MB__OUT1.3 PA__OUT1.0 PA__OUT1.1 PA__OUT1.2 PA__OUT1.3 PO__OUT1.0 PO__OUT1.1 PO__OUT1.2 PO__OUT1.3 RC__OUT1.0 RC__OUT1.1 RC__OUT1.2 RC__OUT1.3 RO__OUT1.0
NODES RO__OUT1.1 RO__OUT1.2 RO__OUT1.3 RR__OUT1.0 RR__OUT1.1 RR__OUT1.2 RR__OUT1.3 RT__OUT1.0 RT__OUT1.1 RT__OUT1.2 RT__OUT1.3 SC__OUT1.0 SC__OUT1.1 SC__OUT1.2 SC__OUT1.3 SE__OUT1.0 SE__OUT1.1 SE__OUT1.2 SE__OUT1.3 TR__OUT1.0
NODES TR__OUT1.1 TR__OUT1.2 TR__OUT1.3 TRI__OUT1.0 TRI__OUT1.1 TRI__OUT1.2 TRI__OUT1.3 VE__OUT1.0 VE__OUT1.1 VE__OUT1.2 VE__OUT1.3
LINKS AR__1.0 AR__1.1 AR__1.2 AR__1.3 AR__2.0 AR__2.1 AR__2.2 AR__2.3 AR__4.0 AR__4.1 AR__4.2 AR__4.3 AR__5.0 AR__5.1 AR__5.2 AR__5.3 AR__6.0 AR__6.1 AR__6.2 AR__6.3 AR__Sub3.0
LINKS AR__Sub3.1 AR__Sub3.2 AR__Sub3.3 C_1.0 C_1.1 C_1.2 C_1.3 C_2.0 C_2.1 C_2.2 C_2.3 C_4.0 C_4.1 C_4.2 C_4.3 C_5.0 C_5.1 C_5.2 C_5.3 C_6.0
LINKS C_6.1 C_6.2 C_6.3 C_Sub3.0 C_Sub3.1 C_Sub3.2 C_Sub3.3 CAT__1.0 CAT__1.1 CAT__1.2 CAT__1.3 CAT__2.0 CAT__2.1 CAT__2.2 CAT__2.3 CAT__4.0 CAT__4.1 CAT__4.2 CAT__4.3 CAT__5.0
LINKS CAT__5.1 CAT__5.2 CAT__5.3 CAT__6.0 CAT__6.1 CAT__6.2 CAT__6.3 CAT__Sub3.0 CAT__Sub3.1 CAT__Sub3.2 CAT__Sub3.3 CS__1.0 CS__1.1 CS__1.2 CS__1.3 CS__2.0 CS__2.1 CS__2.2 CS__2.3 CS__4.0
LINKS CS__4.1 CS__4.2 CS__4.3 CS__5.0 CS__5.1 CS__5.2 CS__5.3 CS__6.0 CS__6.1 CS__6.2 CS__6.3 CS__Sub3.0 CS__Sub3.1 CS__Sub3.2 CS__Sub3.3 DM_1.0 DM_1.1 DM_1.2 DM_1.3 DM_2.0
LINKS DM_2.1 DM_2.2 DM_2.3 DM_4.0 DM_4.1 DM_4.2 DM_4.3 DM_5.0 DM_5.1 DM_5.2 DM_5.3 DM_6.0 DM_6.1 DM_6.2 DM_6.3 DM_Sub3.0 DM_Sub3.1 DM_Sub3.2 DM_Sub3.3 EG__1.0
LINKS EG__1.1 EG__1.2 EG__1.3 EG__2.0 EG__2.1 EG__2.2 EG__2.3 EG__4.0 EG__4.1 EG__4.2 EG__4.3 EG__5.0 EG__5.1 EG__5.2 EG__5.3 EG__6.0 EG__6.1 EG__6.2 EG__6.3 EG__Sub3.0
LINKS EG__Sub3.1 EG__Sub3.2 EG__Sub3.3 FC_1.0 FC_1.1 FC_1.2 FC_1.3 FC_2.0 FC_2.1 FC_2.2 FC_2.3 FC_4.0 FC_4.1 FC_4.2 FC_4.3 FC_5.0 FC_5.1 FC_5.2 FC_5.3 FC_6.0
LINKS FC_6.1 FC_6.2 FC_6.3 FC_Sub3.0 FC_Sub3.1 FC_Sub3.2 FC_Sub3.3 FM__1.0 FM__1.1 FM__1.2 FM__1.3 FM__2.0 FM__2.1 FM__2.2 FM__2.3 FM__4.0 FM__4.1 FM__4.2 FM__4.3 FM__5.0
LINKS FM__5.1 FM__5.2 FM__5.3 FM__6.0 FM__6.1 FM__6.2 FM__6.3 FM__Sub3.0 FM__Sub3.1 FM__Sub3.2 FM__Sub3.3 GT__1.0 GT__1.1 GT__1.2 GT__1.3 GT__2.0 GT__2.1 GT__2.2 GT__2.3 GT__4.0
LINKS GT__4.1 GT__4.2 GT__4.3 GT__5.0 GT__5.1 GT__5.2 GT__5.3 GT__6.0 GT__6.1 GT__6.2 GT__6.3 GT__Sub3.0 GT__Sub3.1 GT__Sub3.2 GT__Sub3.3 HE__1.0 HE__1.1 HE__1.2 HE__1.3 HE__2.0
LINKS HE__2.1 HE__2.2 HE__2.3 HE__4.0 HE__4.1 HE__4.2 HE__4.3 HE__5.0 HE__5.1 HE__5.2 HE__5.3 HE__6.0 HE__6.1 HE__6.2 HE__6.3 HE__Sub3.0 HE__Sub3.1 HE__Sub3.2 HE__Sub3.3 HS__1.0
LINKS HS__1.1 HS__1.2 HS__1.3 HS__2.0 HS__2.1 HS__2.2 HS__2.3 HS__4.0 HS__4.1 HS__4.2 HS__4.3 HS__5.0 HS__5.1 HS__5.2 HS__5.3 HS__6.0 HS__6.1 HS__6.2 HS__6.3 HS__Sub3.0
LINKS HS__Sub3.1 HS__Sub3.2 HS__Sub3.3 IR__1.0 IR__1.1 IR__1.2 IR__1.3 IR__2.0 IR__2.1 IR__2.2 IR__2.3 IR__4.0 IR__4.1 IR__4.2 IR__4.3 IR__5.0 IR__5.1 IR__5.2 IR__5.3 IR__6.0
LINKS IR__6.1 IR__6.2 IR__6.3 IR__Sub3.0 IR__Sub3.1 IR__Sub3.2 IR__Sub3.3 MB__1.0 MB__1.1 MB__1.2 MB__1.3 MB__2.0 MB__2.1 MB__2.2 MB__2.3 MB__4.0 MB__4.1 MB__4.2 MB__4.3 MB__5.0
LINKS MB__5.1 MB__5.2 MB__5.3 MB__6.0 MB__6.1 MB__6.2 MB__6.3 MB__Sub3.0 MB__Sub3.1 MB__Sub3.2 MB__Sub3.3 PA__1.0 PA__1.1 PA__1.2 PA__1.3 PA__2.0 PA__2.1 PA__2.2 PA__2.3 PA__4.0
LINKS PA__4.1 PA__4.2 PA__4.3 PA__5.0 PA__5.1 PA__5.2 PA__5.3 PA__6.0 PA__6.1 PA__6.2 PA__6.3 PA__Sub3.0 PA__Sub3.1 PA__Sub3.2 PA__Sub3.3 PO__1.0 PO__1.1 PO__1.2 PO__1.3 PO__2.0
LINKS PO__2.1 PO__2.2 PO__2.3 PO__4.0 PO__4.1 PO__4.2 PO__4.3 PO__5.0 PO__5.1 PO__5.2 PO__5.3 PO__6.0 PO__6.1 PO__6.2 PO__6.3 PO__Sub3.0 PO__Sub3.1 PO__Sub3.2 PO__Sub3.3 RC__1.0
LINKS RC__1.1 RC__1.2 RC__1.3 RC__2.0 RC__2.1 RC__2.2 RC__2.3 RC__4.0 RC__4.1 RC__4.2 RC__4.3 RC__5.0 RC__5.1 RC__5.2 RC__5.3 RC__6.0 RC__6.1 RC__6.2 RC__6.3 RC__Sub3.0
LINKS RC__Sub3.1 RC__Sub3.2 RC__Sub3.3 RO__1.0 RO__1.1 RO__1.2 RO__1.3 RO__2.0 RO__2.1 RO__2.2 RO__2.3 RO__4.0 RO__4.1 RO__4.2 RO__4.3 RO__5.0 RO__5.1 RO__5.2 RO__5.3 RO__6.0
LINKS RO__6.1 RO__6.2 RO__6.3 RO__Sub3.0 RO__Sub3.1 RO__Sub3.2 RO__Sub3.3 RR__1.0 RR__1.1 RR__1.2 RR__1.3 RR__2.0 RR__2.1 RR__2.2 RR__2.3 RR__4.0 RR__4.1 RR__4.2 RR__4.3 RR__5.0
LINKS RR__5.1 RR__5.2 RR__5.3 RR__6.0 RR__6.1 RR__6.2 RR__6.3 RR__Sub3.0 RR__Sub3.1 RR__Sub3.2 RR__Sub3.3 RT__1.0 RT__1.1 RT__1.2 RT__1.3 RT__2.0 RT__2.1 RT__2.2 RT__2.3 RT__4.0
LINKS RT__4.1 RT__4.2 RT__4.3 RT__5.0 RT__5.1 RT__5.2 RT__5.3 RT__6.0 RT__6.1 RT__6.2 RT__6.3 RT__Sub3.0 RT__Sub3.1 RT__Sub3.2 RT__Sub3.3 SC__1.0 SC__1.1 SC__1.2 SC__1.3 SC__2.0
LINKS SC__2.1 SC__2.2 SC__2.3 SC__4.0 SC__4.1 SC__4.2 SC__4.3 SC__5.0 SC__5.1 SC__5.2 SC__5.3 SC__6.0 SC__6.1 SC__6.2 SC__6.3 SC__Sub3.0 SC__Sub3.1 SC__Sub3.2 SC__Sub3.3 SE__1.0
LINKS SE__1.1 SE__1.2 SE__1.3 SE__2.0 SE__2.1 SE__2.2 SE__2.3 SE__4.0 SE__4.1 SE__4.2 SE__4.3 SE__5.0 SE__5.1 SE__5.2 SE__5.3 SE__6.0 SE__6.1 SE__6.2 SE__6.3 SE__Sub3.0
LINKS SE__Sub3.1 SE__Sub3.2 SE__Sub3.3 TR__1.0 TR__1.1 TR__1.2 TR__1.3 TR__2.0 TR__2.1 TR__2.2 TR__2.3 TR__4.0 TR__4.1 TR__4.2 TR__4.3 TR__5.0 TR__5.1 TR__5.2 TR__5.3 TR__6.0
LINKS TR__6.1 TR__6.2 TR__6.3 TR__Sub3.0 TR__Sub3.1 TR__Sub3.2 TR__Sub3.3 TRI__1.0 TRI__1.1 TRI__1.2 TRI__1.3 TRI__2.0 TRI__2.1 TRI__2.2 TRI__2.3 TRI__4.0 TRI__4.1 TRI__4.2 TRI__4.3 TRI__5.0
LINKS TRI__5.1 TRI__5.2 TRI__5.3 TRI__6.0 TRI__6.1 TRI__6.2 TRI__6.3 TRI__Sub3.0 TRI__Sub3.1 TRI__Sub3.2 TRI__Sub3.3 VE__1.0 VE__1.1 VE__1.2 VE__1.3 VE__2.0 VE__2.1 VE__2.2 VE__2.3 VE__4.0
LINKS VE__4.1 VE__4.2 VE__4.3 VE__5.0 VE__5.1 VE__5.2 VE__5.3 VE__6.0 VE__6.1 VE__6.2 VE__6.3 VE__Sub3.0 VE__Sub3.1 VE__Sub3.2 VE__Sub3.3

[RAINGAGES]
;;Name Form Intvl SCF TIMESERIES Tseries
;;Name Form Intvl SCF FILE Fname Sta Units

[ADJUSTMENTS]
;;TEMPERATURE  t1 t2 t3 t4 t5 t6 t7 t8 t9 t10 t11 t12
;;EVAPORATION  e1 e2 e3 e4 e5 e6 e7 e8 e9 e10 e11 e12
;;RAINFALL   r1 r2 r3 r4 r5 r6 r7 r8 r9 r10 r11 r12
;;CONDUCTIVITY c1 c2 c3 c4 c5 c6 c7 c8 c9 c10 c11 c12 
CONDUCTIVITY 1.0          1.0          1.0          1.0          1.0          1.0          1.0          1.0          1.0          1.0          1.0          1.0         
EVAPORATION 0.0          0.0          0.0          0.0          0.0          0.0          0.0          0.0          0.0          0.0          0.0          0.0         
RAINFALL 1.0          1.0          1.0          1.0          1.0          1.0          1.0          1.0          1.0          1.0          1.0          1.0         
TEMPERATURE 32.0         32.0         32.0         32.0         32.0         32.0         32.0         32.0         32.0         32.0         32.0         32.0        

[SUBCATCHMENTS]
;;Name Rgage OutID Area %Imperv Width Slope Clength SnowPack

[SUBAREAS]
;;Subcat Nimp Nperv Simp Sperv %Zero RouteTo PctRouted

[INFILTRATION]
;;Subcat MaxRate MinRate Decay DryTime MaxInf
;;Subcat Psi Ksat IMD
;;Subcat CurveNo Ksat DryTime

[LID_CONTROLS]
;;Name SURFACE  StorHt  VegFrac  Rough  Slope  Xslope
;;Name SOIL     Thick  Por  FC  WP  Ksat  Kcoeff  Suct
;;Name PAVEMENT Thick  Vratio  FracImp  Perm  Vclog
;;Name STORAGE  Height  Vratio  Seepage  Vclog
;;Name DRAIN    Coeff  Expon  Offset  Delay
;;Name DRAINMAT Thick  Vratio  Rough
;;Name REMOVALS PollId  %Remov ...

[LID_USAGE]
;;Subcat LID Number Area Width InitSat FromImp ToPerv RptFile DrainTo FromPerv

[AQUIFERS]
;;Name Por WP FC Ks Kslp Tslp ETu ETs Seep Ebot Egw Umc (Epat)

[GROUNDWATER]
;;Subcat Aquifer Node Esurf A1 B1 A2 B2 A3 Dsw (Egwt Ebot Egw Umc)

[GWF]
;;Subcat  LATERAL/DEEP  Expr

[SNOWPACKS]
;;Name PLOWABLE   Cmin  Cmax  Tbase  FWF  SD0  FW0  SNN0
;;Name IMPERVIOUS Cmin  Cmax  Tbase  FWF  SD0  FW0  SD100
;;Name PERVIOUS   Cmin  Cmax  Tbase  FWF  SD0  FW0  SD100
;;Name REMOVAL   Dplow Fout Fimp Fperv Fimelt (Fsub Scatch)

[JUNCTIONS]
;;Name Elev (Ymax Y0 Ysur Apond)
AR__N1.0     102.0        3.0          0.0          0.0          0.0         
AR__N1.1     102.0        3.0          0.0          0.0          0.0         
AR__N1.2     102.0        3.0          0.0          0.0          0.0         
AR__N1.3     102.0        3.0          0.0          0.0          0.0         
AR__N2.0     104.0        4.0          0.0          0.0          0.0         
AR__N2.1     104.0        4.0          0.0          0.0          0.0         
AR__N2.2     104.0        4.0          0.0          0.0          0.0         
AR__N2.3     104.0        4.0          0.0          0.0          0.0         
AR__N3.0     104.3        5.7          0.0          0.0          0.0         
AR__N3.1     104.3        5.7          0.0          0.0          0.0         
AR__N3.2     104.3        5.7          0.0          0.0          0.0         
AR__N3.3     104.3        5.7          0.0          0.0          0.0         
AR__N4.0     106.3        3.7          0.0          0.0          0.0         
AR__N4.1     106.3        3.7          0.0          0.0          0.0         
AR__N4.2     106.3        3.7          0.0          0.0          0.0         
AR__N4.3     106.3        3.7          0.0          0.0          0.0         
AR__N5.0     108.3        3.7          0.0          0.0          0.0         
AR__N5.1     108.3        3.7          0.0          0.0          0.0         
AR__N5.2     108.3        3.7          0.0          0.0          0.0         
AR__N5.3     108.3        3.7          0.0          0.0          0.0         
AR__N6.0     110.3        3.7          0.0          0.0          0.0         
AR__N6.1     110.3        3.7          0.0          0.0          0.0         
AR__N6.2     110.3        3.7          0.0          0.0          0.0         
AR__N6.3     110.3        3.7          0.0          0.0          0.0         
C_N1.0       102.0        3.0          0.0          0.0          0.0         
C_N1.1       102.0        3.0          0.0          0.0          0.0         
C_N1.2       102.0        3.0          0.0          0.0          0.0         
C_N1.3       102.0        3.0          0.0          0.0          0.0         
C_N2.0       104.0        4.0          0.0          0.0          0.0         
C_N2.1       104.0        4.0          0.0          0.0          0.0         
C_N2.2       104.0        4.0          0.0          0.0          0.0         
C_N2.3       104.0        4.0          0.0          0.0          0.0         
C_N3.0       104.3        5.7          0.0          0.0          0.0         
C_N3.1       104.3        5.7          0.0          0.0          0.0         
C_N3.2       104.3        5.7          0.0          0.0          0.0         
C_N3.3       104.3        5.7          0.0          0.0          0.0         
C_N4.0       106.3        3.7          0.0          0.0          0.0         
C_N4.1       106.3        3.7          0.0          0.0          0.0         
C_N4.2       106.3        3.7          0.0          0.0          0.0         
C_N4.3       106.3        3.7          0.0          0.0          0.0         
C_N5.0       108.3        3.7          0.0          0.0          0.0         
C_N5.1       108.3        3.7          0.0          0.0          0.0         
C_N5.2       108.3        3.7          0.0          0.0          0.0         
C_N5.3       108.3        3.7          0.0          0.0          0.0         
C_N6.0       110.3        3.7          0.0          0.0          0.0         
C_N6.1       110.3        3.7          0.0          0.0          0.0         
C_N6.2       110.3        3.7          0.0          0.0          0.0         
C_N6.3       110.3        3.7          0.0          0.0          0.0         
CAT__N1.0    102.0        3.0          0.0          0.0          0.0         
CAT__N1.1    102.0        3.0          0.0          0.0          0.0         
CAT__N1.2    102.0        3.0          0.0          0.0          0.0         
CAT__N1.3    102.0        3.0          0.0          0.0          0.0         
CAT__N2.0    104.0        4.0          0.0          0.0          0.0         
CAT__N2.1    104.0        4.0          0.0          0.0          0.0         
CAT__N2.2    104.0        4.0          0.0          0.0          0.0         
CAT__N2.3    104.0        4.0          0.0          0.0          0.0         
CAT__N3.0    104.3        5.7          0.0          0.0          0.0         
CAT__N3.1    104.3        5.7          0.0          0.0          0.0         
CAT__N3.2    104.3        5.7          0.0          0.0          0.0         
CAT__N3.3    104.3        5.7          0.0          0.0          0.0         
CAT__N4.0    106.3        3.7          0.0          0.0          0.0         
CAT__N4.1    106.3        3.7          0.0          0.0          0.0         
CAT__N4.2    106.3        3.7          0.0          0.0          0.0         
CAT__N4.3    106.3        3.7          0.0          0.0          0.0         
CAT__N5.0    108.3        3.7          0.0          0.0          0.0         
CAT__N5.1    108.3        3.7          0.0          0.0          0.0         
CAT__N5.2    108.3        3.7          0.0          0.0          0.0         
CAT__N5.3    108.3        3.7          0.0          0.0          0.0         
CAT__N6.0    110.3        3.7          0.0          0.0          0.0         
CAT__N6.1    110.3        3.7          0.0          0.0          0.0         
CAT__N6.2    110.3        3.7          0.0          0.0          0.0         
CAT__N6.3    110.3        3.7          0.0          0.0          0.0         
CS__N1.0     102.0        3.0          0.0          0.0          0.0         
CS__N1.1     102.0        3.0          0.0          0.0          0.0         
CS__N1.2     102.0        3.0          0.0          0.0          0.0         
CS__N1.3     102.0        3.0          0.0          0.0          0.0         
CS__N2.0     104.0        4.0          0.0          0.0          0.0         
CS__N2.1     104.0        4.0          0.0          0.0          0.0         
CS__N2.2     104.0        4.0          0.0          0.0          0.0         
CS__N2.3     104.0        4.0          0.0          0.0          0.0         
CS__N3.0     104.3        5.7          0.0          0.0          0.0         
CS__N3.1     104.3        5.7          0.0          0.0          0.0         
CS__N3.2     104.3        5.7          0.0          0.0          0.0         
CS__N3.3     104.3        5.7          0.0          0.0          0.0         
CS__N4.0     106.3        3.7          0.0          0.0          0.0         
CS__N4.1     106.3        3.7          0.0          0.0          0.0         
CS__N4.2     106.3        3.7          0.0          0.0          0.0         
CS__N4.3     106.3        3.7          0.0          0.0          0.0         
CS__N5.0     108.3        3.7          0.0          0.0          0.0         
CS__N5.1     108.3        3.7          0.0          0.0          0.0         
CS__N5.2     108.3        3.7          0.0          0.0          0.0         
CS__N5.3     108.3        3.7          0.0          0.0          0.0         
CS__N6.0     110.3        3.7          0.0          0.0          0.0         
CS__N6.1     110.3        3.7          0.0          0.0          0.0         
CS__N6.2     110.3        3.7          0.0          0.0          0.0         
CS__N6.3     110.3        3.7          0.0          0.0          0.0         
DM_N1.0      102.0        3.0          0.0          0.0          0.0         
DM_N1.1      102.0        3.0          0.0          0.0          0.0         
DM_N1.2      102.0        3.0          0.0          0.0          0.0         
DM_N1.3      102.0        3.0          0.0          0.0          0.0         
DM_N2.0      104.0        4.0          0.0          0.0          0.0         
DM_N2.1      104.0        4.0          0.0          0.0          0.0         
DM_N2.2      104.0        4.0          0.0          0.0          0.0         
DM_N2.3      104.0        4.0          0.0          0.0          0.0         
DM_N3.0      104.3        5.7          0.0          0.0          0.0         
DM_N3.1      104.3        5.7          0.0          0.0          0.0         
DM_N3.2      104.3        5.7          0.0          0.0          0.0         
DM_N3.3      104.3        5.7          0.0          0.0          0.0         
DM_N4.0      106.3        3.7          0.0          0.0          0.0         
DM_N4.1      106.3        3.7          0.0          0.0          0.0         
DM_N4.2      106.3        3.7          0.0          0.0          0.0         
DM_N4.3      106.3        3.7          0.0          0.0          0.0         
DM_N5.0      108.3        3.7          0.0          0.0          0.0         
DM_N5.1      108.3        3.7          0.0          0.0          0.0         
DM_N5.2      108.3        3.7          0.0          0.0          0.0         
DM_N5.3      108.3        3.7          0.0          0.0          0.0         
DM_N6.0      110.3        3.7          0.0          0.0          0.0         
DM_N6.1      110.3        3.7          0.0          0.0          0.0         
DM_N6.2      110.3        3.7          0.0          0.0          0.0         
DM_N6.3      110.3        3.7          0.0          0.0          0.0         
EG__N1.0     102.0        3.0          0.0          0.0          0.0         
EG__N1.1     102.0        3.0          0.0          0.0          0.0         
EG__N1.2     102.0        3.0          0.0          0.0          0.0         
EG__N1.3     102.0        3.0          0.0          0.0          0.0         
EG__N2.0     104.0        4.0          0.0          0.0          0.0         
EG__N2.1     104.0        4.0          0.0          0.0          0.0         
EG__N2.2     104.0        4.0          0.0          0.0          0.0         
EG__N2.3     104.0        4.0          0.0          0.0          0.0         
EG__N3.0     104.3        5.7          0.0          0.0          0.0         
EG__N3.1     104.3        5.7          0.0          0.0          0.0         
EG__N3.2     104.3        5.7          0.0          0.0          0.0         
EG__N3.3     104.3        5.7          0.0          0.0          0.0         
EG__N4.0     106.3        3.7          0.0          0.0          0.0         
EG__N4.1     106.3        3.7          0.0          0.0          0.0         
EG__N4.2     106.3        3.7          0.0          0.0          0.0         
EG__N4.3     106.3        3.7          0.0          0.0          0.0         
EG__N5.0     108.3        3.7          0.0          0.0          0.0         
EG__N5.1     108.3        3.7          0.0          0.0          0.0         
EG__N5.2     108.3        3.7          0.0          0.0          0.0         
EG__N5.3     108.3        3.7          0.0          0.0          0.0         
EG__N6.0     110.3        3.7          0.0          0.0          0.0         
EG__N6.1     110.3        3.7          0.0          0.0          0.0         
EG__N6.2     110.3        3.7          0.0          0.0          0.0         
EG__N6.3     110.3        3.7          0.0          0.0          0.0         
FC_N1.0      102.0        3.0          0.0          0.0          0.0         
FC_N1.1      102.0        3.0          0.0          0.0          0.0         
FC_N1.2      102.0        3.0          0.0          0.0          0.0         
FC_N1.3      102.0        3.0          0.0          0.0          0.0         
FC_N2.0      104.0        4.0          0.0          0.0          0.0         
FC_N2.1      104.0        4.0          0.0          0.0          0.0         
FC_N2.2      104.0        4.0          0.0          0.0          0.0         
FC_N2.3      104.0        4.0          0.0          0.0          0.0         
FC_N3.0      104.3        5.7          0.0          0.0          0.0         
FC_N3.1      104.3        5.7          0.0          0.0          0.0         
FC_N3.2      104.3        5.7          0.0          0.0          0.0         
FC_N3.3      104.3        5.7          0.0          0.0          0.0         
FC_N4.0      106.3        3.7          0.0          0.0          0.0         
FC_N4.1      106.3        3.7          0.0          0.0          0.0         
FC_N4.2      106.3        3.7          0.0          0.0          0.0         
FC_N4.3      106.3        3.7          0.0          0.0          0.0         
FC_N5.0      108.3        3.7          0.0          0.0          0.0         
FC_N5.1      108.3        3.7          0.0          0.0          0.0         
FC_N5.2      108.3        3.7          0.0          0.0          0.0         
FC_N5.3      108.3        3.7          0.0          0.0          0.0         
FC_N6.0      110.3        3.7          0.0          0.0          0.0         
FC_N6.1      110.3        3.7          0.0          0.0          0.0         
FC_N6.2      110.3        3.7          0.0          0.0          0.0         
FC_N6.3      110.3        3.7          0.0          0.0          0.0         
FM__N1.0     102.0        3.0          0.0          0.0          0.0         
FM__N1.1     102.0        3.0          0.0          0.0          0.0         
FM__N1.2     102.0        3.0          0.0          0.0          0.0         
FM__N1.3     102.0        3.0          0.0          0.0          0.0         
FM__N2.0     104.0        4.0          0.0          0.0          0.0         
FM__N2.1     104.0        4.0          0.0          0.0          0.0         
FM__N2.2     104.0        4.0          0.0          0.0          0.0         
FM__N2.3     104.0        4.0          0.0          0.0          0.0         
FM__N3.0     104.3        5.7          0.0          0.0          0.0         
FM__N3.1     104.3        5.7          0.0          0.0          0.0         
FM__N3.2     104.3        5.7          0.0          0.0          0.0         
FM__N3.3     104.3        5.7          0.0          0.0          0.0         
FM__N4.0     106.3        3.7          0.0          0.0          0.0         
FM__N4.1     106.3        3.7          0.0          0.0          0.0         
FM__N4.2     106.3        3.7          0.0          0.0          0.0         
FM__N4.3     106.3        3.7          0.0          0.0          0.0         
FM__N5.0     108.3        3.7          0.0          0.0          0.0         
FM__N5.1     108.3        3.7          0.0          0.0          0.0         
FM__N5.2     108.3        3.7          0.0          0.0          0.0         
FM__N5.3     108.3        3.7          0.0          0.0          0.0         
FM__N6.0     110.3        3.7          0.0          0.0          0.0         
FM__N6.1     110.3        3.7          0.0          0.0          0.0         
FM__N6.2     110.3        3.7          0.0          0.0          0.0         
FM__N6.3     110.3        3.7          0.0          0.0          0.0         
GT__N1.0     102.0        3.0          0.0          0.0          0.0         
GT__N1.1     102.0        3.0          0.0          0.0          0.0         